/*---------------------------------------------------------------------------*\
| =========                 |                                                 |
| \\      /  F ield         | OpenFOAM: The Open Source CFD Toolbox           |
|  \\    /   O peration     | Version:  v1712                                 |
|   \\  /    A nd           | Web:      www.OpenFOAM.com                      |
|    \\/     M anipulation  |                                                 |
\*---------------------------------------------------------------------------*/
Build  : v1712
Arch   : "LSB;label=32;scalar=64"
Exec   : overInterDyMFoam
Date   : Jan 04 2018
Time   : 21:58:22
Host   : "inabower-PC"
PID    : 2837
I/O    : uncollated
Case   : /media/inabower/3C9455F89455B55C/inabower/tutorials-v1712/multiphase/overInterDyMFoam/floatingBody/background
nProcs : 1
trapFpe: Floating point exception trapping enabled (FOAM_SIGFPE).
fileModificationChecking : Monitoring run-time modified files using timeStampMaster (fileModificationSkew 10)
allowSystemOperations : Allowing user-supplied system call operations

// * * * * * * * * * * * * * * * * * * * * * * * * * * * * * * * * * * * * * //
Create time

Create mesh for time = 0

Using #calc at line 45 in file "/media/inabower/3C9455F89455B55C/inabower/tutorials-v1712/multiphase/overInterDyMFoam/floatingBody/background/constant/dynamicMeshDict.sixDoFRigidBodyMotionCoeffs"
Using #codeStream with "/media/inabower/3C9455F89455B55C/inabower/tutorials-v1712/multiphase/overInterDyMFoam/floatingBody/background/dynamicCode/platforms/linux64GccDPInt32Opt/lib/libcodeStream_0c6f2cb5f72425bb8e16db551a7cb2156c7b1a2e.so"
Creating new library in "dynamicCode/_0c6f2cb5f72425bb8e16db551a7cb2156c7b1a2e/platforms/linux64GccDPInt32Opt/lib/libcodeStream_0c6f2cb5f72425bb8e16db551a7cb2156c7b1a2e.so"
Invoking wmake libso /media/inabower/3C9455F89455B55C/inabower/tutorials-v1712/multiphase/overInterDyMFoam/floatingBody/background/dynamicCode/_0c6f2cb5f72425bb8e16db551a7cb2156c7b1a2e
wmake libso /media/inabower/3C9455F89455B55C/inabower/tutorials-v1712/multiphase/overInterDyMFoam/floatingBody/background/dynamicCode/_0c6f2cb5f72425bb8e16db551a7cb2156c7b1a2e
wmakeLnInclude: linking include files to ./lnInclude
Making dependency list for source file codeStreamTemplate.C
g++ -std=c++11 -m64 -DOPENFOAM_PLUS=1712 -Dlinux64 -DWM_ARCH_OPTION=64 -DWM_DP -DWM_LABEL_SIZE=32 -Wall -Wextra -Wold-style-cast -Wnon-virtual-dtor -Wno-unused-parameter -Wno-invalid-offsetof -Wno-attributes -O3  -DNoRepository -ftemplate-depth-100 -g  -IlnInclude -I. -I/home/inabower/OpenFOAM/OpenFOAM-v1712/src/OpenFOAM/lnInclude -I/home/inabower/OpenFOAM/OpenFOAM-v1712/src/OSspecific/POSIX/lnInclude   -fPIC -c codeStreamTemplate.C -o Make/linux64GccDPInt32Opt/codeStreamTemplate.o
g++ -std=c++11 -m64 -DOPENFOAM_PLUS=1712 -Dlinux64 -DWM_ARCH_OPTION=64 -DWM_DP -DWM_LABEL_SIZE=32 -Wall -Wextra -Wold-style-cast -Wnon-virtual-dtor -Wno-unused-parameter -Wno-invalid-offsetof -Wno-attributes -O3  -DNoRepository -ftemplate-depth-100 -g  -IlnInclude -I. -I/home/inabower/OpenFOAM/OpenFOAM-v1712/src/OpenFOAM/lnInclude -I/home/inabower/OpenFOAM/OpenFOAM-v1712/src/OSspecific/POSIX/lnInclude   -fPIC -shared -Xlinker --add-needed -Xlinker --no-as-needed Make/linux64GccDPInt32Opt/codeStreamTemplate.o -L/home/inabower/OpenFOAM/OpenFOAM-v1712/platforms/linux64GccDPInt32Opt/lib \
    -lOpenFOAM   -o /media/inabower/3C9455F89455B55C/inabower/tutorials-v1712/multiphase/overInterDyMFoam/floatingBody/background/dynamicCode/_0c6f2cb5f72425bb8e16db551a7cb2156c7b1a2e/../platforms/linux64GccDPInt32Opt/lib/libcodeStream_0c6f2cb5f72425bb8e16db551a7cb2156c7b1a2e.so
Using #codeStream at line 48 in file "/media/inabower/3C9455F89455B55C/inabower/tutorials-v1712/multiphase/overInterDyMFoam/floatingBody/background/constant/dynamicMeshDict.sixDoFRigidBodyMotionCoeffs"
Using #codeStream with "/media/inabower/3C9455F89455B55C/inabower/tutorials-v1712/multiphase/overInterDyMFoam/floatingBody/background/dynamicCode/platforms/linux64GccDPInt32Opt/lib/libcodeStream_0cd82ce849871746092ffa51e4e387be4da30515.so"
Creating new library in "dynamicCode/_0cd82ce849871746092ffa51e4e387be4da30515/platforms/linux64GccDPInt32Opt/lib/libcodeStream_0cd82ce849871746092ffa51e4e387be4da30515.so"
Invoking wmake libso /media/inabower/3C9455F89455B55C/inabower/tutorials-v1712/multiphase/overInterDyMFoam/floatingBody/background/dynamicCode/_0cd82ce849871746092ffa51e4e387be4da30515
wmake libso /media/inabower/3C9455F89455B55C/inabower/tutorials-v1712/multiphase/overInterDyMFoam/floatingBody/background/dynamicCode/_0cd82ce849871746092ffa51e4e387be4da30515
wmakeLnInclude: linking include files to ./lnInclude
Making dependency list for source file codeStreamTemplate.C
g++ -std=c++11 -m64 -DOPENFOAM_PLUS=1712 -Dlinux64 -DWM_ARCH_OPTION=64 -DWM_DP -DWM_LABEL_SIZE=32 -Wall -Wextra -Wold-style-cast -Wnon-virtual-dtor -Wno-unused-parameter -Wno-invalid-offsetof -Wno-attributes -O3  -DNoRepository -ftemplate-depth-100 -g  -IlnInclude -I. -I/home/inabower/OpenFOAM/OpenFOAM-v1712/src/OpenFOAM/lnInclude -I/home/inabower/OpenFOAM/OpenFOAM-v1712/src/OSspecific/POSIX/lnInclude   -fPIC -c codeStreamTemplate.C -o Make/linux64GccDPInt32Opt/codeStreamTemplate.o
g++ -std=c++11 -m64 -DOPENFOAM_PLUS=1712 -Dlinux64 -DWM_ARCH_OPTION=64 -DWM_DP -DWM_LABEL_SIZE=32 -Wall -Wextra -Wold-style-cast -Wnon-virtual-dtor -Wno-unused-parameter -Wno-invalid-offsetof -Wno-attributes -O3  -DNoRepository -ftemplate-depth-100 -g  -IlnInclude -I. -I/home/inabower/OpenFOAM/OpenFOAM-v1712/src/OpenFOAM/lnInclude -I/home/inabower/OpenFOAM/OpenFOAM-v1712/src/OSspecific/POSIX/lnInclude   -fPIC -shared -Xlinker --add-needed -Xlinker --no-as-needed Make/linux64GccDPInt32Opt/codeStreamTemplate.o -L/home/inabower/OpenFOAM/OpenFOAM-v1712/platforms/linux64GccDPInt32Opt/lib \
    -lOpenFOAM   -o /media/inabower/3C9455F89455B55C/inabower/tutorials-v1712/multiphase/overInterDyMFoam/floatingBody/background/dynamicCode/_0cd82ce849871746092ffa51e4e387be4da30515/../platforms/linux64GccDPInt32Opt/lib/libcodeStream_0cd82ce849871746092ffa51e4e387be4da30515.so
Selecting dynamicFvMesh dynamicOversetFvMesh
Using #calc at line 45 in file "/media/inabower/3C9455F89455B55C/inabower/tutorials-v1712/multiphase/overInterDyMFoam/floatingBody/background/constant/dynamicMeshDict.sixDoFRigidBodyMotionCoeffs"
Using #codeStream at line 48 in file "/media/inabower/3C9455F89455B55C/inabower/tutorials-v1712/multiphase/overInterDyMFoam/floatingBody/background/constant/dynamicMeshDict.sixDoFRigidBodyMotionCoeffs"
Selecting motion solver: sixDoFRigidBodyMotion
Using #calc at line 45 in file "/media/inabower/3C9455F89455B55C/inabower/tutorials-v1712/multiphase/overInterDyMFoam/floatingBody/background/constant/dynamicMeshDict.sixDoFRigidBodyMotionCoeffs"
Using #codeStream at line 48 in file "/media/inabower/3C9455F89455B55C/inabower/tutorials-v1712/multiphase/overInterDyMFoam/floatingBody/background/constant/dynamicMeshDict.sixDoFRigidBodyMotionCoeffs"
Selecting sixDoFSolver Newmark
Translational constraint tensor (0 0 0 0 0 0 0 0 1)
Rotational constraint tensor (1 0 0 0 1 0 0 0 1)

PIMPLE: no residual control data found. Calculations will employ 2 corrector loops

Reading field p_rgh

Reading field U

Reading/calculating face flux field phi

Creating cellMask field to block out hole cells

inverseDistance : detected 2 mesh regions
    zone:0 nCells:42875  voxels:(37 37 37) bb:(-1.73205080757e-06 -1.73205080757e-06 -1.73205080757e-06) (1.00000173205 1.00000173205 1.00000173205)
    zone:1 nCells:9552  voxels:(37 37 37) bb:(0.2999991 0.2999991 0.0999991) (0.7000009 0.7000009 0.8000009)
Overset analysis : nCells : 52427
    calculated   : 47582
    interpolated : 3630 (interpolated from local:3630  mixed local/remote:0  remote:0)
    hole         : 1215

Creating interpolatedCells field 

Reading transportProperties

Selecting incompressible transport model Newtonian
Selecting incompressible transport model Newtonian
Selecting turbulence model type RAS
Selecting RAS turbulence model kEpsilon
RAS
{
    RASModel        kEpsilon;
    turbulence      on;
    printCoeffs     on;
    Cmu             0.09;
    C1              1.44;
    C2              1.92;
    C3              0;
    sigmak          1;
    sigmaEps        1.3;
}


Reading g

Reading hRef
Calculating field g.h

No MRF models present

No finite volume options present

DICPCG:  Solving for pcorr, Initial residual = 0, Final residual = 0, No Iterations 0
Reading/calculating face velocity Uf

Courant Number mean: 0 max: 0

Starting time loop

Courant Number mean: 0 max: 0
Interface Courant Number mean: 0 max: 0
deltaT = 0.00120481927711
Time = 0.00120482

PIMPLE: iteration 1
forces forces:
    Not including porosity effects

6-DoF rigid body motion
    Centre of rotation: (0.5 0.5 0.299993993792)
    Centre of mass: (0.5 0.5 0.299993993792)
    Orientation: (1 -1.36637614189e-20 -6.05166248696e-21 1.36637614189e-20 1 3.59316619318e-21 6.05166248696e-21 -3.59316619318e-21 1)
    Linear velocity: (0 0 -0.00997030598106)
    Angular velocity: (-5.96465588068e-18 -1.00457597284e-17 2.26818439554e-17)
inverseDistance : detected 2 mesh regions
    zone:0 nCells:42875  voxels:(37 37 37) bb:(-1.73205080757e-06 -1.73205080757e-06 -1.73205080757e-06) (1.00000173205 1.00000173205 1.00000173205)
    zone:1 nCells:9552  voxels:(37 37 37) bb:(0.2999991 0.2999991 0.0999930937916) (0.7000009 0.7000009 0.799994893792)
Overset analysis : nCells : 52427
    calculated   : 47582
    interpolated : 3630 (interpolated from local:3630  mixed local/remote:0  remote:0)
    hole         : 1215

Execution time for mesh.update() = 0.89 s
smoothSolver:  Solving for alpha.water, Initial residual = 1.94388583695e-07, Final residual = 6.5320101878e-19, No Iterations 1
Phase-1 volume fraction = 0.556023515467  Min(alpha.water) = 0  Max(alpha.water) = 1
MULES: Correcting alpha.water
MULES: Correcting alpha.water
MULES: Correcting alpha.water
Phase-1 volume fraction = 0.556023515467  Min(alpha.water) = 0  Max(alpha.water) = 1
smoothSolver:  Solving for alpha.water, Initial residual = 1.41143256544e-17, Final residual = 1.41143256544e-17, No Iterations 0
Phase-1 volume fraction = 0.556023515467  Min(alpha.water) = 0  Max(alpha.water) = 1
MULES: Correcting alpha.water
MULES: Correcting alpha.water
MULES: Correcting alpha.water
Phase-1 volume fraction = 0.556023515467  Min(alpha.water) = 0  Max(alpha.water) = 1
DILUPBiCGStab:  Solving for p_rgh, Initial residual = 1, Final residual = 0.00951120413508, No Iterations 5
time step continuity errors : sum local = 6.31262609832e-05, global = -1.03545983256e-05, cumulative = -1.03545983256e-05
DILUPBiCGStab:  Solving for p_rgh, Initial residual = 0.00121482934493, Final residual = 9.36268259661e-10, No Iterations 43
time step continuity errors : sum local = 2.59317111315e-10, global = -2.05778874156e-10, cumulative = -1.03548041045e-05
smoothSolver:  Solving for epsilon, Initial residual = 0.00357245137476, Final residual = 2.70046203076e-11, No Iterations 3
smoothSolver:  Solving for k, Initial residual = 0.999999999775, Final residual = 6.25604783723e-11, No Iterations 4
PIMPLE: iteration 2
smoothSolver:  Solving for alpha.water, Initial residual = 7.06121017452e-06, Final residual = 1.54449765558e-11, No Iterations 1
Phase-1 volume fraction = 0.556023922632  Min(alpha.water) = 0  Max(alpha.water) = 1.00000000003
MULES: Correcting alpha.water
MULES: Correcting alpha.water
MULES: Correcting alpha.water
Phase-1 volume fraction = 0.556023912731  Min(alpha.water) = -2.62407163953e-14  Max(alpha.water) = 1.00000000003
smoothSolver:  Solving for alpha.water, Initial residual = 7.0363223615e-06, Final residual = 1.53713794133e-11, No Iterations 1
Phase-1 volume fraction = 0.556024319804  Min(alpha.water) = -4.96891997983e-18  Max(alpha.water) = 1.00000000005
MULES: Correcting alpha.water
MULES: Correcting alpha.water
MULES: Correcting alpha.water
Phase-1 volume fraction = 0.556024309899  Min(alpha.water) = -1.45312052641e-14  Max(alpha.water) = 1.00000000005
DILUPBiCGStab:  Solving for p_rgh, Initial residual = 0.000210766134349, Final residual = 1.41684073996e-06, No Iterations 13
time step continuity errors : sum local = 9.57073189567e-07, global = 6.07845234375e-07, cumulative = -9.74695887008e-06
DILUPBiCGStab:  Solving for p_rgh, Initial residual = 3.49018243653e-06, Final residual = 4.97160502153e-10, No Iterations 31
time step continuity errors : sum local = 3.36433157797e-10, global = -2.13061531862e-10, cumulative = -9.74717193161e-06
smoothSolver:  Solving for epsilon, Initial residual = 0.00171876630222, Final residual = 3.92258593241e-09, No Iterations 2
smoothSolver:  Solving for k, Initial residual = 0.00509569369707, Final residual = 6.82640296402e-11, No Iterations 3
ExecutionTime = 3.04 s  ClockTime = 6 s

Courant Number mean: 0.000205341180238 max: 0.0171856831822
Interface Courant Number mean: 1.95508174507e-05 max: 0.0171856831822
deltaT = 0.00145287030475
Time = 0.00265769

PIMPLE: iteration 1
forces forces:
    Not including porosity effects

6-DoF rigid body motion
    Centre of rotation: (0.5 0.5 0.299968484226)
    Centre of mass: (0.5 0.5 0.299968484226)
    Orientation: (1 1.8803542123e-09 -3.85880519645e-08 -1.8803560423e-09 1 -4.74239352676e-08 3.85880518754e-08 4.74239353402e-08 1)
    Linear velocity: (-0 -0 -0.0251457889304)
    Angular velocity: (6.5283095307e-05 -5.31197475987e-05 -2.58846935089e-06)
inverseDistance : detected 2 mesh regions
    zone:0 nCells:42875  voxels:(37 37 37) bb:(-1.73205080757e-06 -1.73205080757e-06 -1.73205080757e-06) (1.00000173205 1.00000173205 1.00000173205)
    zone:1 nCells:9552  voxels:(37 37 37) bb:(0.29999908033 0.299999075912 0.0999675670234) (0.700000908094 0.700000909861 0.799969401428)
Overset analysis : nCells : 52427
    calculated   : 47582
    interpolated : 3630 (interpolated from local:3630  mixed local/remote:0  remote:0)
    hole         : 1215

Execution time for mesh.update() = 0.74 s
smoothSolver:  Solving for alpha.water, Initial residual = 8.21641838257e-06, Final residual = 2.10709853708e-11, No Iterations 1
Phase-1 volume fraction = 0.55602490436  Min(alpha.water) = -5.78089544834e-19  Max(alpha.water) = 1.00000000181
MULES: Correcting alpha.water
MULES: Correcting alpha.water
MULES: Correcting alpha.water
Phase-1 volume fraction = 0.556024890745  Min(alpha.water) = -3.37260317386e-14  Max(alpha.water) = 1.00000000181
smoothSolver:  Solving for alpha.water, Initial residual = 8.17547124318e-06, Final residual = 2.09276459933e-11, No Iterations 1
Phase-1 volume fraction = 0.556025417234  Min(alpha.water) = -2.71643536174e-18  Max(alpha.water) = 1.00000000361
MULES: Correcting alpha.water
MULES: Correcting alpha.water
MULES: Correcting alpha.water
Phase-1 volume fraction = 0.556025403605  Min(alpha.water) = -4.6551183696e-14  Max(alpha.water) = 1.00000000361
DILUPBiCGStab:  Solving for p_rgh, Initial residual = 0.000212103055657, Final residual = 1.93422659516e-06, No Iterations 13
time step continuity errors : sum local = 9.88070508696e-07, global = -2.66102621359e-07, cumulative = -1.0013274553e-05
DILUPBiCGStab:  Solving for p_rgh, Initial residual = 7.71943850606e-06, Final residual = 8.5524700464e-10, No Iterations 32
time step continuity errors : sum local = 7.66948397319e-10, global = 5.65118291349e-10, cumulative = -1.00127094347e-05
smoothSolver:  Solving for epsilon, Initial residual = 0.00246941406905, Final residual = 9.1692324536e-09, No Iterations 2
smoothSolver:  Solving for k, Initial residual = 0.56042373705, Final residual = 8.46747072423e-09, No Iterations 3
PIMPLE: iteration 2
smoothSolver:  Solving for alpha.water, Initial residual = 3.02600635863e-06, Final residual = 9.40488674893e-12, No Iterations 1
Phase-1 volume fraction = 0.556026312977  Min(alpha.water) = -1.95873301584e-19  Max(alpha.water) = 1.00000000019
MULES: Correcting alpha.water
MULES: Correcting alpha.water
MULES: Correcting alpha.water
Phase-1 volume fraction = 0.556026303533  Min(alpha.water) = -2.89182463818e-13  Max(alpha.water) = 1.00000000019
smoothSolver:  Solving for alpha.water, Initial residual = 1.44082223473e-05, Final residual = 4.93632799813e-11, No Iterations 1
Phase-1 volume fraction = 0.556028238231  Min(alpha.water) = -1.47843818091e-17  Max(alpha.water) = 1.00000000035
MULES: Correcting alpha.water
MULES: Correcting alpha.water
MULES: Correcting alpha.water
Phase-1 volume fraction = 0.55602822877  Min(alpha.water) = -5.40166198554e-13  Max(alpha.water) = 1.00000000035
DILUPBiCGStab:  Solving for p_rgh, Initial residual = 0.000149202487523, Final residual = 1.4643132547e-06, No Iterations 3
time step continuity errors : sum local = 1.45030632977e-06, global = -3.80962519977e-08, cumulative = -1.00508056867e-05
DILUPBiCGStab:  Solving for p_rgh, Initial residual = 1.8037113747e-06, Final residual = 8.65580599068e-10, No Iterations 36
time step continuity errors : sum local = 8.01880273505e-10, global = 7.75284083073e-10, cumulative = -1.00500304026e-05
smoothSolver:  Solving for epsilon, Initial residual = 0.000177144595567, Final residual = 9.78950200142e-10, No Iterations 2
smoothSolver:  Solving for k, Initial residual = 0.00153598375881, Final residual = 4.66302949106e-09, No Iterations 2
ExecutionTime = 4.95 s  ClockTime = 8 s

Courant Number mean: 0.000452225718843 max: 0.0342422523621
Interface Courant Number mean: 4.00852102161e-05 max: 0.0342422523621
deltaT = 0.00173825554318
Time = 0.00439595

PIMPLE: iteration 1
forces forces:
    Not including porosity effects

6-DoF rigid body motion
    Centre of rotation: (0.5 0.5 0.299922573115)
    Centre of mass: (0.5 0.5 0.299922573115)
    Orientation: (1 1.36600400763e-08 -2.67047106148e-07 -1.36601280719e-08 1 -3.29513604684e-07 2.67047101647e-07 3.29513608332e-07 1)
    Linear velocity: (-0 -0 -0.0276785622034)
    Angular velocity: (0.000259283303138 -0.000209740398146 -1.09650371019e-05)
inverseDistance : detected 2 mesh regions
    zone:0 nCells:42875  voxels:(37 37 37) bb:(-1.73205080757e-06 -1.73205080757e-06 -1.73205080757e-06) (1.00000173205 1.00000173205 1.00000173205)
    zone:1 nCells:9552  voxels:(37 37 37) bb:(0.299998963744 0.299998932511 0.0999215538027) (0.700000956142 0.700000968635 0.799923592428)
Overset analysis : nCells : 52427
    calculated   : 47582
    interpolated : 3630 (interpolated from local:3630  mixed local/remote:0  remote:0)
    hole         : 1215

Execution time for mesh.update() = 0.74 s
smoothSolver:  Solving for alpha.water, Initial residual = 1.69834921443e-05, Final residual = 7.61579974625e-11, No Iterations 1
Phase-1 volume fraction = 0.556030663485  Min(alpha.water) = -3.89439980547e-17  Max(alpha.water) = 1.00000000031
MULES: Correcting alpha.water
MULES: Correcting alpha.water
MULES: Correcting alpha.water
Phase-1 volume fraction = 0.556030652405  Min(alpha.water) = -1.40582840284e-12  Max(alpha.water) = 1.00000000031
smoothSolver:  Solving for alpha.water, Initial residual = 1.68597392021e-05, Final residual = 7.52499844912e-11, No Iterations 1
Phase-1 volume fraction = 0.556032964334  Min(alpha.water) = -8.26826062428e-17  Max(alpha.water) = 1.0000000004
MULES: Correcting alpha.water
MULES: Correcting alpha.water
MULES: Correcting alpha.water
Phase-1 volume fraction = 0.556032953231  Min(alpha.water) = -1.91570874939e-12  Max(alpha.water) = 1.0000000004
DILUPBiCGStab:  Solving for p_rgh, Initial residual = 0.000364153594387, Final residual = 3.28949104996e-06, No Iterations 13
time step continuity errors : sum local = 1.62419837196e-06, global = -1.01394533202e-06, cumulative = -1.10639757346e-05
DILUPBiCGStab:  Solving for p_rgh, Initial residual = 7.4461774482e-06, Final residual = 8.90182020616e-10, No Iterations 35
time step continuity errors : sum local = 9.09065998995e-10, global = 5.68889422905e-10, cumulative = -1.10634068452e-05
smoothSolver:  Solving for epsilon, Initial residual = 0.00275273578484, Final residual = 5.68810630401e-11, No Iterations 3
smoothSolver:  Solving for k, Initial residual = 0.341182562588, Final residual = 8.48749558767e-11, No Iterations 4
PIMPLE: iteration 2
smoothSolver:  Solving for alpha.water, Initial residual = 7.35520303551e-06, Final residual = 5.34228551937e-11, No Iterations 1
Phase-1 volume fraction = 0.556031843918  Min(alpha.water) = -5.38790113097e-17  Max(alpha.water) = 1.00000000197
MULES: Correcting alpha.water
MULES: Correcting alpha.water
MULES: Correcting alpha.water
Phase-1 volume fraction = 0.556031832837  Min(alpha.water) = -4.42231898704e-12  Max(alpha.water) = 1.00000000197
smoothSolver:  Solving for alpha.water, Initial residual = 2.2323944427e-05, Final residual = 1.42415436363e-10, No Iterations 1
Phase-1 volume fraction = 0.556035324634  Min(alpha.water) = -1.73737123297e-16  Max(alpha.water) = 1.00000000393
MULES: Correcting alpha.water
MULES: Correcting alpha.water
MULES: Correcting alpha.water
Phase-1 volume fraction = 0.556035313561  Min(alpha.water) = -5.3630819302e-12  Max(alpha.water) = 1.00000000393
DILUPBiCGStab:  Solving for p_rgh, Initial residual = 0.000113786140458, Final residual = 1.11428989738e-06, No Iterations 3
time step continuity errors : sum local = 1.38968545432e-06, global = 8.89167656162e-08, cumulative = -1.09744900796e-05
DILUPBiCGStab:  Solving for p_rgh, Initial residual = 1.33349901983e-06, Final residual = 9.94495218454e-10, No Iterations 35
time step continuity errors : sum local = 1.36479324401e-09, global = 1.36416392892e-09, cumulative = -1.09731259156e-05
smoothSolver:  Solving for epsilon, Initial residual = 0.000210605420105, Final residual = 1.70712121005e-09, No Iterations 2
smoothSolver:  Solving for k, Initial residual = 0.0012633204676, Final residual = 6.98421446717e-09, No Iterations 2
ExecutionTime = 6.99 s  ClockTime = 10 s

Courant Number mean: 0.000805008328983 max: 0.0520424946173
Interface Courant Number mean: 7.10016998616e-05 max: 0.0520424946173
deltaT = 0.00207834901902
Time = 0.00647429

PIMPLE: iteration 1
forces forces:
    Not including porosity effects

6-DoF rigid body motion
    Centre of rotation: (0.5 0.5 0.299869924095)
    Centre of mass: (0.5 0.5 0.299869924095)
    Orientation: (1 5.08913350282e-08 -9.44519679295e-07 -5.0892440055e-08 0.999999999999 -1.16993521349e-06 9.44519619755e-07 1.16993526156e-06 0.999999999999)
    Linear velocity: (-0 -0 -0.0229857102338)
    Angular velocity: (0.000549456343696 -0.000442192983534 -2.48632110816e-05)
inverseDistance : detected 2 mesh regions
    zone:0 nCells:42875  voxels:(37 37 37) bb:(-1.73205080757e-06 -1.73205080757e-06 -1.73205080757e-06) (1.00000173205 1.00000173205 1.00000173205)
    zone:1 nCells:9552  voxels:(37 37 37) bb:(0.299998617561 0.299998504853 0.0998686012027) (0.700001099083 0.700001144167 0.799871246987)
Overset analysis : nCells : 52427
    calculated   : 47582
    interpolated : 3630 (interpolated from local:3630  mixed local/remote:0  remote:0)
    hole         : 1215

Execution time for mesh.update() = 0.87 s
smoothSolver:  Solving for alpha.water, Initial residual = 2.65199945828e-05, Final residual = 2.37874028246e-10, No Iterations 1
Phase-1 volume fraction = 0.556039624992  Min(alpha.water) = -3.49237752379e-16  Max(alpha.water) = 1.00000000381
MULES: Correcting alpha.water
MULES: Correcting alpha.water
MULES: Correcting alpha.water
Phase-1 volume fraction = 0.556039611871  Min(alpha.water) = -1.22076448844e-11  Max(alpha.water) = 1.00000000381
smoothSolver:  Solving for alpha.water, Initial residual = 2.62759795247e-05, Final residual = 2.34253749723e-10, No Iterations 1
Phase-1 volume fraction = 0.556043781682  Min(alpha.water) = -7.06911769223e-16  Max(alpha.water) = 1.00000000369
MULES: Correcting alpha.water
MULES: Correcting alpha.water
MULES: Correcting alpha.water
Phase-1 volume fraction = 0.556043768573  Min(alpha.water) = -1.55655515707e-11  Max(alpha.water) = 1.00000000369
DILUPBiCGStab:  Solving for p_rgh, Initial residual = 0.000501221975081, Final residual = 4.66676925455e-06, No Iterations 9
time step continuity errors : sum local = 3.47831847982e-06, global = 5.32489133517e-07, cumulative = -1.04406367821e-05
DILUPBiCGStab:  Solving for p_rgh, Initial residual = 7.79133983805e-06, Final residual = 7.96478276129e-10, No Iterations 34
time step continuity errors : sum local = 1.5090901579e-09, global = 5.73997874418e-10, cumulative = -1.04400627843e-05
smoothSolver:  Solving for epsilon, Initial residual = 0.00305547084941, Final residual = 1.2610148613e-10, No Iterations 3
smoothSolver:  Solving for k, Initial residual = 0.253715295829, Final residual = 1.97576477043e-10, No Iterations 4
PIMPLE: iteration 2
smoothSolver:  Solving for alpha.water, Initial residual = 1.59824749679e-05, Final residual = 1.67934176269e-10, No Iterations 1
Phase-1 volume fraction = 0.55603946548  Min(alpha.water) = -4.49345283737e-16  Max(alpha.water) = 1.00000000393
MULES: Correcting alpha.water
MULES: Correcting alpha.water
MULES: Correcting alpha.water
Phase-1 volume fraction = 0.55603945234  Min(alpha.water) = -5.54786103108e-11  Max(alpha.water) = 1.00000000393
smoothSolver:  Solving for alpha.water, Initial residual = 3.07118818329e-05, Final residual = 3.49178093995e-10, No Iterations 1
Phase-1 volume fraction = 0.556043462412  Min(alpha.water) = -1.43948566741e-15  Max(alpha.water) = 1.00000000393
MULES: Correcting alpha.water
MULES: Correcting alpha.water
MULES: Correcting alpha.water
Phase-1 volume fraction = 0.556043449286  Min(alpha.water) = -3.13077681509e-11  Max(alpha.water) = 1.00000000393
DILUPBiCGStab:  Solving for p_rgh, Initial residual = 6.98014777207e-05, Final residual = 6.03776674216e-07, No Iterations 5
time step continuity errors : sum local = 6.3758636599e-07, global = -2.21227504119e-07, cumulative = -1.06612902884e-05
DILUPBiCGStab:  Solving for p_rgh, Initial residual = 7.79330460397e-07, Final residual = 9.12269459257e-10, No Iterations 27
time step continuity errors : sum local = 1.57939329603e-09, global = 1.49059259374e-09, cumulative = -1.06597996958e-05
smoothSolver:  Solving for epsilon, Initial residual = 0.0002530056097, Final residual = 3.02908380474e-09, No Iterations 2
smoothSolver:  Solving for k, Initial residual = 0.00117510906976, Final residual = 7.27163776135e-11, No Iterations 3
ExecutionTime = 9.05 s  ClockTime = 12 s

Courant Number mean: 0.00119041703788 max: 0.0733630723227
Interface Courant Number mean: 0.000114865587095 max: 0.071407261984
deltaT = 0.00246120278568
Time = 0.0089355

PIMPLE: iteration 1
forces forces:
    Not including porosity effects

6-DoF rigid body motion
    Centre of rotation: (0.5 0.5 0.299822126916)
    Centre of mass: (0.5 0.5 0.299822126916)
    Orientation: (0.999999999997 1.34342641651e-07 -2.38363441469e-06 -1.34349696902e-07 0.999999999996 -2.95987123159e-06 2.38363401704e-06 2.95987155183e-06 0.999999999993)
    Linear velocity: (-0 -0 -0.0158547943104)
    Angular velocity: (0.000905065112659 -0.000727247100746 -4.29526371677e-05)
inverseDistance : detected 2 mesh regions
    zone:0 nCells:42875  voxels:(37 37 37) bb:(-1.73205080757e-06 -1.73205080757e-06 -1.73205080757e-06) (1.00000173205 1.00000173205 1.00000173205)
    zone:1 nCells:9552  voxels:(37 37 37) bb:(0.299997881311 0.299997593192 0.0998201582127) (0.700001403598 0.700001518847 0.799824095617)
Overset analysis : nCells : 52427
    calculated   : 47582
    interpolated : 3630 (interpolated from local:3630  mixed local/remote:0  remote:0)
    hole         : 1215

Execution time for mesh.update() = 0.7 s
smoothSolver:  Solving for alpha.water, Initial residual = 3.60910685592e-05, Final residual = 5.61848770576e-10, No Iterations 1
Phase-1 volume fraction = 0.556048322341  Min(alpha.water) = -2.81129031705e-15  Max(alpha.water) = 1.00000000353
MULES: Correcting alpha.water
MULES: Correcting alpha.water
MULES: Correcting alpha.water
Phase-1 volume fraction = 0.556048306584  Min(alpha.water) = -6.52897774719e-11  Max(alpha.water) = 1.00000000353
smoothSolver:  Solving for alpha.water, Initial residual = 3.56903374759e-05, Final residual = 5.52091171777e-10, No Iterations 1
Phase-1 volume fraction = 0.556053050412  Min(alpha.water) = -5.54878594767e-15  Max(alpha.water) = 1.00000000312
MULES: Correcting alpha.water
MULES: Correcting alpha.water
MULES: Correcting alpha.water
Phase-1 volume fraction = 0.556053034667  Min(alpha.water) = -8.82033641064e-11  Max(alpha.water) = 1.00000000312
DILUPBiCGStab:  Solving for p_rgh, Initial residual = 0.000586219382259, Final residual = 4.92188909168e-06, No Iterations 6
time step continuity errors : sum local = 5.32624381562e-06, global = -9.62982440548e-07, cumulative = -1.16227821363e-05
DILUPBiCGStab:  Solving for p_rgh, Initial residual = 7.76627644528e-06, Final residual = 4.35018115407e-10, No Iterations 36
time step continuity errors : sum local = 9.83340400104e-10, global = 9.53967481498e-10, cumulative = -1.16218281688e-05
smoothSolver:  Solving for epsilon, Initial residual = 0.0033477706013, Final residual = 2.68453077173e-10, No Iterations 3
smoothSolver:  Solving for k, Initial residual = 0.207972312526, Final residual = 4.74058507866e-10, No Iterations 4
PIMPLE: iteration 2
smoothSolver:  Solving for alpha.water, Initial residual = 2.41880141248e-05, Final residual = 3.94750437072e-10, No Iterations 1
Phase-1 volume fraction = 0.556047220812  Min(alpha.water) = -3.66916432606e-15  Max(alpha.water) = 1.00000000392
MULES: Correcting alpha.water
MULES: Correcting alpha.water
MULES: Correcting alpha.water
Phase-1 volume fraction = 0.556047204817  Min(alpha.water) = -4.09076515098e-10  Max(alpha.water) = 1.00000000392
smoothSolver:  Solving for alpha.water, Initial residual = 3.99029093492e-05, Final residual = 7.36294175085e-10, No Iterations 1
Phase-1 volume fraction = 0.556050846984  Min(alpha.water) = -1.38409471457e-14  Max(alpha.water) = 1.0000000039
MULES: Correcting alpha.water
MULES: Correcting alpha.water
MULES: Correcting alpha.water
Phase-1 volume fraction = 0.556050830979  Min(alpha.water) = -1.62193047744e-10  Max(alpha.water) = 1.0000000039
DILUPBiCGStab:  Solving for p_rgh, Initial residual = 9.08545917695e-05, Final residual = 8.36435797537e-07, No Iterations 4
time step continuity errors : sum local = 1.43246249877e-06, global = -3.23401842043e-08, cumulative = -1.16541683531e-05
DILUPBiCGStab:  Solving for p_rgh, Initial residual = 1.05679738726e-06, Final residual = 9.17029946557e-10, No Iterations 25
time step continuity errors : sum local = 1.89648562642e-09, global = -3.47728457318e-10, cumulative = -1.16545160815e-05
smoothSolver:  Solving for epsilon, Initial residual = 0.000301248484252, Final residual = 5.24779142487e-09, No Iterations 2
smoothSolver:  Solving for k, Initial residual = 0.00116378996524, Final residual = 1.58922413219e-10, No Iterations 3
ExecutionTime = 10.92 s  ClockTime = 14 s

Courant Number mean: 0.00161517292999 max: 0.0973629960992
Interface Courant Number mean: 0.000154691458516 max: 0.0926097360851
deltaT = 0.00293756461517
Time = 0.0118731

PIMPLE: iteration 1
forces forces:
    Not including porosity effects

6-DoF rigid body motion
    Centre of rotation: (0.5 0.5 0.299786089863)
    Centre of mass: (0.5 0.5 0.299786089863)
    Orientation: (0.999999999987 2.92452400012e-07 -5.01324546512e-06 -2.92483632432e-07 0.999999999981 -6.22998075141e-06 5.01324364305e-06 6.22998221762e-06 0.999999999968)
    Linear velocity: (-0 -0 -0.00868053139184)
    Angular velocity: (0.00132134379284 -0.00106308658459 -6.47024203883e-05)
inverseDistance : detected 2 mesh regions
    zone:0 nCells:42875  voxels:(37 37 37) bb:(-1.73205080757e-06 -1.73205080757e-06 -1.73205080757e-06) (1.00000173205 1.00000173205 1.00000173205)
    zone:1 nCells:9552  voxels:(37 37 37) bb:(0.299996534882 0.29999592651 0.0997829412176) (0.700001961144 0.700002204496 0.7997892385)
Overset analysis : nCells : 52427
    calculated   : 47582
    interpolated : 3630 (interpolated from local:3630  mixed local/remote:0  remote:0)
    hole         : 1215

Execution time for mesh.update() = 0.76 s
smoothSolver:  Solving for alpha.water, Initial residual = 4.7378206389e-05, Final residual = 1.22299438836e-09, No Iterations 1
Phase-1 volume fraction = 0.556055275663  Min(alpha.water) = -2.77166535726e-14  Max(alpha.water) = 1.00000000401
MULES: Correcting alpha.water
MULES: Correcting alpha.water
MULES: Correcting alpha.water
Phase-1 volume fraction = 0.556055256066  Min(alpha.water) = -4.32575065009e-10  Max(alpha.water) = 1.00000000401
smoothSolver:  Solving for alpha.water, Initial residual = 4.67576066998e-05, Final residual = 1.19791653681e-09, No Iterations 1
Phase-1 volume fraction = 0.556059602679  Min(alpha.water) = -5.86469477069e-14  Max(alpha.water) = 1.00000000411
MULES: Correcting alpha.water
MULES: Correcting alpha.water
MULES: Correcting alpha.water
Phase-1 volume fraction = 0.556059583048  Min(alpha.water) = -6.32602319067e-10  Max(alpha.water) = 1.00000000411
DILUPBiCGStab:  Solving for p_rgh, Initial residual = 0.000641999810405, Final residual = 5.36114894925e-06, No Iterations 3
time step continuity errors : sum local = 1.32739521979e-05, global = -2.6496373229e-07, cumulative = -1.19194798138e-05
DILUPBiCGStab:  Solving for p_rgh, Initial residual = 8.16947161032e-06, Final residual = 9.85022512472e-10, No Iterations 36
time step continuity errors : sum local = 3.3029221983e-09, global = 3.28906433992e-09, cumulative = -1.19161907495e-05
smoothSolver:  Solving for epsilon, Initial residual = 0.00368270764663, Final residual = 6.18608948598e-10, No Iterations 3
smoothSolver:  Solving for k, Initial residual = 0.182646947517, Final residual = 1.28655128891e-09, No Iterations 4
PIMPLE: iteration 2
smoothSolver:  Solving for alpha.water, Initial residual = 3.35291223006e-05, Final residual = 9.10639042986e-10, No Iterations 1
Phase-1 volume fraction = 0.556053672502  Min(alpha.water) = -3.91351237084e-14  Max(alpha.water) = 1.00000000387
MULES: Correcting alpha.water
MULES: Correcting alpha.water
MULES: Correcting alpha.water
Phase-1 volume fraction = 0.556053652288  Min(alpha.water) = -2.12182294495e-09  Max(alpha.water) = 1.00000000387
smoothSolver:  Solving for alpha.water, Initial residual = 5.18501375417e-05, Final residual = 1.54189051778e-09, No Iterations 1
Phase-1 volume fraction = 0.556056395127  Min(alpha.water) = -1.88160835425e-13  Max(alpha.water) = 1.00000000383
MULES: Correcting alpha.water
MULES: Correcting alpha.water
MULES: Correcting alpha.water
Phase-1 volume fraction = 0.55605637488  Min(alpha.water) = -1.07691713024e-09  Max(alpha.water) = 1.00000000383
DILUPBiCGStab:  Solving for p_rgh, Initial residual = 0.000113981711886, Final residual = 9.41331253268e-07, No Iterations 4
time step continuity errors : sum local = 2.72270420339e-06, global = 1.28374920669e-07, cumulative = -1.17878158288e-05
DILUPBiCGStab:  Solving for p_rgh, Initial residual = 1.1332661161e-06, Final residual = 9.85940992132e-10, No Iterations 24
time step continuity errors : sum local = 2.79028947619e-09, global = 1.21256948246e-09, cumulative = -1.17866032593e-05
smoothSolver:  Solving for epsilon, Initial residual = 0.000367406289751, Final residual = 9.72839561397e-09, No Iterations 2
smoothSolver:  Solving for k, Initial residual = 0.0012189533957, Final residual = 3.85261449694e-10, No Iterations 3
ExecutionTime = 12.93 s  ClockTime = 16 s

Courant Number mean: 0.00223156826689 max: 0.126098801589
Interface Courant Number mean: 0.000223507436125 max: 0.122599318238
deltaT = 0.0035250775382
Time = 0.0153981

PIMPLE: iteration 1
forces forces:
    Not including porosity effects

6-DoF rigid body motion
    Centre of rotation: (0.5 0.5 0.299768314187)
    Centre of mass: (0.5 0.5 0.299768314187)
    Orientation: (0.999999999955 5.65747064979e-07 -9.47451111187e-06 -5.65858551515e-07 0.999999999931 -1.17669975946e-05 9.47450445406e-06 1.17670029553e-05 0.999999999886)
    Linear velocity: (-0 -0 -0.00140473677903)
    Angular velocity: (0.0018201579075 -0.00146807109356 -9.03777568303e-05)
inverseDistance : detected 2 mesh regions
    zone:0 nCells:42875  voxels:(37 37 37) bb:(-1.73205080757e-06 -1.73205080757e-06 -1.73205080757e-06) (1.00000173205 1.00000173205 1.00000173205)
    zone:1 nCells:9552  voxels:(37 37 37) bb:(0.299994249591 0.29999310333 0.0997631658953) (0.700002908056 0.700003366571 0.799773462445)
Overset analysis : nCells : 52427
    calculated   : 47582
    interpolated : 3630 (interpolated from local:3630  mixed local/remote:0  remote:0)
    hole         : 1215

Execution time for mesh.update() = 0.83 s
smoothSolver:  Solving for alpha.water, Initial residual = 6.16290368798e-05, Final residual = 2.52464560757e-09, No Iterations 1
Phase-1 volume fraction = 0.556059721688  Min(alpha.water) = -3.88117128399e-13  Max(alpha.water) = 1.00000000375
MULES: Correcting alpha.water
MULES: Correcting alpha.water
MULES: Correcting alpha.water
Phase-1 volume fraction = 0.556059696654  Min(alpha.water) = -2.46626497796e-09  Max(alpha.water) = 1.00000000375
smoothSolver:  Solving for alpha.water, Initial residual = 6.07050240743e-05, Final residual = 2.46770054089e-09, No Iterations 1
Phase-1 volume fraction = 0.556062994206  Min(alpha.water) = -8.080387884e-13  Max(alpha.water) = 1.00000000368
MULES: Correcting alpha.water
MULES: Correcting alpha.water
MULES: Correcting alpha.water
Phase-1 volume fraction = 0.556062969081  Min(alpha.water) = -3.27718666357e-09  Max(alpha.water) = 1.00000000368
DILUPBiCGStab:  Solving for p_rgh, Initial residual = 0.00068756410253, Final residual = 4.83872450155e-06, No Iterations 3
time step continuity errors : sum local = 1.9831455675e-05, global = -2.0979014922e-07, cumulative = -1.19963934085e-05
DILUPBiCGStab:  Solving for p_rgh, Initial residual = 7.75036464259e-06, Final residual = 7.83613108778e-10, No Iterations 38
time step continuity errors : sum local = 3.56387594043e-09, global = 3.55302452115e-09, cumulative = -1.1992840384e-05
smoothSolver:  Solving for epsilon, Initial residual = 0.00407727939544, Final residual = 1.53137213816e-09, No Iterations 3
smoothSolver:  Solving for k, Initial residual = 0.167336225375, Final residual = 3.77816023158e-09, No Iterations 4
PIMPLE: iteration 2
smoothSolver:  Solving for alpha.water, Initial residual = 4.6273004265e-05, Final residual = 2.18410370596e-09, No Iterations 1
Phase-1 volume fraction = 0.556057775116  Min(alpha.water) = -5.79322080466e-13  Max(alpha.water) = 1.00000000378
MULES: Correcting alpha.water
MULES: Correcting alpha.water
MULES: Correcting alpha.water
Phase-1 volume fraction = 0.556057749168  Min(alpha.water) = -8.05726266608e-09  Max(alpha.water) = 1.00000000378
smoothSolver:  Solving for alpha.water, Initial residual = 6.73835143166e-05, Final residual = 3.06799662597e-09, No Iterations 1
Phase-1 volume fraction = 0.556059098312  Min(alpha.water) = -2.96880798273e-12  Max(alpha.water) = 1.00000000372
MULES: Correcting alpha.water
MULES: Correcting alpha.water
MULES: Correcting alpha.water
Phase-1 volume fraction = 0.556059072353  Min(alpha.water) = -8.20285684856e-09  Max(alpha.water) = 1.00000000372
DILUPBiCGStab:  Solving for p_rgh, Initial residual = 0.0001376182996, Final residual = 1.21662187469e-06, No Iterations 3
time step continuity errors : sum local = 5.38332676603e-06, global = 3.4020993582e-07, cumulative = -1.16526304482e-05
DILUPBiCGStab:  Solving for p_rgh, Initial residual = 1.52262416617e-06, Final residual = 9.58641438095e-10, No Iterations 28
time step continuity errors : sum local = 4.0629622399e-09, global = 3.79121513296e-09, cumulative = -1.16488392331e-05
smoothSolver:  Solving for epsilon, Initial residual = 0.000455807182698, Final residual = 1.84225460086e-10, No Iterations 3
smoothSolver:  Solving for k, Initial residual = 0.00133793659004, Final residual = 1.16801182062e-09, No Iterations 3
ExecutionTime = 14.9 s  ClockTime = 18 s

Courant Number mean: 0.00315792706233 max: 0.171750855577
Interface Courant Number mean: 0.000319468923086 max: 0.171750855577
deltaT = 0.00423009304584
Time = 0.0196282

PIMPLE: iteration 1
forces forces:
    Not including porosity effects

6-DoF rigid body motion
    Centre of rotation: (0.5 0.5 0.299779652394)
    Centre of mass: (0.5 0.5 0.299779652394)
    Orientation: (0.999999999859 1.01224377339e-06 -1.67490232374e-05 -1.0125916737e-06 0.999999999784 -2.07713832663e-05 1.67490022081e-05 2.07714002233e-05 0.999999999644)
    Linear velocity: (0 0 0.00676547328296)
    Angular velocity: (0.00243714360518 -0.00197133590314 -0.000120783132474)
inverseDistance : detected 2 mesh regions
    zone:0 nCells:42875  voxels:(37 37 37) bb:(-1.73205080757e-06 -1.73205080757e-06 -1.73205080757e-06) (1.00000173205 1.00000173205 1.00000173205)
    zone:1 nCells:9552  voxels:(37 37 37) bb:(0.299990523044 0.29998851181 0.0997712483614) (0.700004452249 0.700005256775 0.799788056321)
Overset analysis : nCells : 52427
    calculated   : 47582
    interpolated : 3630 (interpolated from local:3630  mixed local/remote:0  remote:0)
    hole         : 1215

Execution time for mesh.update() = 0.78 s
smoothSolver:  Solving for alpha.water, Initial residual = 8.00149187608e-05, Final residual = 5.01571718292e-09, No Iterations 1
Phase-1 volume fraction = 0.556060674318  Min(alpha.water) = -6.08532161807e-12  Max(alpha.water) = 1.00000000358
MULES: Correcting alpha.water
MULES: Correcting alpha.water
MULES: Correcting alpha.water
Phase-1 volume fraction = 0.556060642223  Min(alpha.water) = -1.8490165686e-08  Max(alpha.water) = 1.00000000358
smoothSolver:  Solving for alpha.water, Initial residual = 7.86840241156e-05, Final residual = 4.9283125632e-09, No Iterations 1
Phase-1 volume fraction = 0.556062273172  Min(alpha.water) = -1.38021722464e-11  Max(alpha.water) = 1.00000000342
MULES: Correcting alpha.water
MULES: Correcting alpha.water
MULES: Correcting alpha.water
Phase-1 volume fraction = 0.556062240971  Min(alpha.water) = -3.44044959389e-08  Max(alpha.water) = 1.00000000342
DILUPBiCGStab:  Solving for p_rgh, Initial residual = 0.000731169088691, Final residual = 5.45061502547e-06, No Iterations 3
time step continuity errors : sum local = 2.97629880869e-05, global = 8.16856257612e-08, cumulative = -1.15671536073e-05
DILUPBiCGStab:  Solving for p_rgh, Initial residual = 8.42920411428e-06, Final residual = 8.52174293987e-10, No Iterations 40
time step continuity errors : sum local = 5.12142220605e-09, global = 4.43191507976e-09, cumulative = -1.15627216922e-05
smoothSolver:  Solving for epsilon, Initial residual = 0.00454377631467, Final residual = 4.01877979612e-09, No Iterations 3
smoothSolver:  Solving for k, Initial residual = 0.157216148595, Final residual = 3.27687414845e-10, No Iterations 5
PIMPLE: iteration 2
smoothSolver:  Solving for alpha.water, Initial residual = 6.51180463191e-05, Final residual = 5.36737396963e-09, No Iterations 1
Phase-1 volume fraction = 0.556058161455  Min(alpha.water) = -1.1809433524e-11  Max(alpha.water) = 1.00000000458
MULES: Correcting alpha.water
MULES: Correcting alpha.water
MULES: Correcting alpha.water
Phase-1 volume fraction = 0.556058130765  Min(alpha.water) = -4.84096208322e-08  Max(alpha.water) = 1.00000000458
smoothSolver:  Solving for alpha.water, Initial residual = 8.88397184064e-05, Final residual = 6.23011386379e-09, No Iterations 1
Phase-1 volume fraction = 0.556057243639  Min(alpha.water) = -8.40141460218e-11  Max(alpha.water) = 1.0000000092
MULES: Correcting alpha.water
MULES: Correcting alpha.water
MULES: Correcting alpha.water
Phase-1 volume fraction = 0.556057213091  Min(alpha.water) = -9.71269896118e-08  Max(alpha.water) = 1.0000000092
DILUPBiCGStab:  Solving for p_rgh, Initial residual = 0.000159580276142, Final residual = 1.31385795404e-06, No Iterations 3
time step continuity errors : sum local = 7.68035130882e-06, global = 4.16910807227e-07, cumulative = -1.1145810885e-05
DILUPBiCGStab:  Solving for p_rgh, Initial residual = 1.67704803486e-06, Final residual = 7.92496992869e-10, No Iterations 25
time step continuity errors : sum local = 4.56769271633e-09, global = 3.91219025615e-09, cumulative = -1.11418986947e-05
smoothSolver:  Solving for epsilon, Initial residual = 0.000569267265921, Final residual = 4.85431917014e-10, No Iterations 3
smoothSolver:  Solving for k, Initial residual = 0.0015030794731, Final residual = 4.16606135961e-09, No Iterations 3
ExecutionTime = 16.95 s  ClockTime = 20 s

Courant Number mean: 0.00456185703406 max: 0.245947571304
Interface Courant Number mean: 0.000460089600648 max: 0.245947571304
deltaT = 0.00502323549194
Time = 0.0246515

PIMPLE: iteration 1
forces forces:
    Not including porosity effects

6-DoF rigid body motion
    Centre of rotation: (0.5 0.5 0.299837917627)
    Centre of mass: (0.5 0.5 0.299837917627)
    Orientation: (0.9999999996 1.71148865386e-06 -2.82324418668e-05 -1.7124751961e-06 0.999999999388 -3.4943580411e-05 2.8232382044e-05 3.49436287443e-05 0.999999998991)
    Linear velocity: (0 0 0.0164328149909)
    Angular velocity: (0.00320551877864 -0.00260077763499 -0.000157748464447)
inverseDistance : detected 2 mesh regions
    zone:0 nCells:42875  voxels:(37 37 37) bb:(-1.73205080757e-06 -1.73205080757e-06 -1.73205080757e-06) (1.00000173205 1.00000173205 1.00000173205)
    zone:1 nCells:9552  voxels:(37 37 37) bb:(0.299984641521 0.299981285797 0.0998243825867) (0.700006888746 0.700008231129 0.799851452364)
Overset analysis : nCells : 52427
    calculated   : 47582
    interpolated : 3630 (interpolated from local:3630  mixed local/remote:0  remote:0)
    hole         : 1215

Execution time for mesh.update() = 0.7 s
smoothSolver:  Solving for alpha.water, Initial residual = 0.000104426221594, Final residual = 4.49206904597e-12, No Iterations 2
Phase-1 volume fraction = 0.556056040504  Min(alpha.water) = -4.79622388997e-14  Max(alpha.water) = 1.00000000828
MULES: Correcting alpha.water
MULES: Correcting alpha.water
MULES: Correcting alpha.water
Phase-1 volume fraction = 0.556056003297  Min(alpha.water) = -5.21508848399e-08  Max(alpha.water) = 1.00000001179
smoothSolver:  Solving for alpha.water, Initial residual = 0.000102581770907, Final residual = 4.62799391556e-12, No Iterations 2
Phase-1 volume fraction = 0.556054985252  Min(alpha.water) = -4.68253691051e-14  Max(alpha.water) = 1.00000000735
MULES: Correcting alpha.water
MULES: Correcting alpha.water
MULES: Correcting alpha.water
Phase-1 volume fraction = 0.55605494803  Min(alpha.water) = -3.38177549873e-08  Max(alpha.water) = 1.00000001415
DILUPBiCGStab:  Solving for p_rgh, Initial residual = 0.000794870661148, Final residual = 6.0270500132e-06, No Iterations 3
time step continuity errors : sum local = 4.26785554398e-05, global = 8.32065473748e-07, cumulative = -1.0309833221e-05
DILUPBiCGStab:  Solving for p_rgh, Initial residual = 9.17535421086e-06, Final residual = 2.68346885331e-10, No Iterations 42
time step continuity errors : sum local = 2.25387321765e-09, global = 2.23395424705e-09, cumulative = -1.03075992667e-05
smoothSolver:  Solving for epsilon, Initial residual = 0.00500128814061, Final residual = 2.15505464012e-10, No Iterations 4
smoothSolver:  Solving for k, Initial residual = 0.149131904219, Final residual = 1.2104830891e-09, No Iterations 5
PIMPLE: iteration 2
smoothSolver:  Solving for alpha.water, Initial residual = 9.44364487476e-05, Final residual = 9.25908147281e-12, No Iterations 2
Phase-1 volume fraction = 0.556052554534  Min(alpha.water) = -4.77206417298e-14  Max(alpha.water) = 1.00000000923
MULES: Correcting alpha.water
MULES: Correcting alpha.water
MULES: Correcting alpha.water
Phase-1 volume fraction = 0.556052516503  Min(alpha.water) = -2.99156168967e-08  Max(alpha.water) = 1.00000002331
smoothSolver:  Solving for alpha.water, Initial residual = 0.000117783476925, Final residual = 9.89116135329e-12, No Iterations 2
Phase-1 volume fraction = 0.556048013982  Min(alpha.water) = -4.63451388549e-14  Max(alpha.water) = 1.00000000926
MULES: Correcting alpha.water
MULES: Correcting alpha.water
MULES: Correcting alpha.water
Phase-1 volume fraction = 0.5560479759  Min(alpha.water) = -2.19601484383e-08  Max(alpha.water) = 1.00000002909
DILUPBiCGStab:  Solving for p_rgh, Initial residual = 0.000172993069932, Final residual = 1.2650989103e-06, No Iterations 3
time step continuity errors : sum local = 9.32174615193e-06, global = 4.22771803031e-07, cumulative = -9.88482746371e-06
DILUPBiCGStab:  Solving for p_rgh, Initial residual = 1.65503398696e-06, Final residual = 9.22404636549e-10, No Iterations 23
time step continuity errors : sum local = 7.2923591361e-09, global = 4.00330365863e-09, cumulative = -9.88082416005e-06
smoothSolver:  Solving for epsilon, Initial residual = 0.000701176498323, Final residual = 1.29232805555e-09, No Iterations 3
smoothSolver:  Solving for k, Initial residual = 0.00170015062015, Final residual = 4.84834830152e-10, No Iterations 4
ExecutionTime = 18.79 s  ClockTime = 22 s

Courant Number mean: 0.00665328139547 max: 0.333650143054
Interface Courant Number mean: 0.000639857830403 max: 0.333650143054
deltaT = 0.00579604095224
Time = 0.0304475

PIMPLE: iteration 1
forces forces:
    Not including porosity effects

6-DoF rigid body motion
    Centre of rotation: (0.5 0.5 0.29996570935)
    Centre of mass: (0.5 0.5 0.29996570935)
    Orientation: (0.999999998957 2.7539681687e-06 -4.55823884931e-05 -2.75653419723e-06 0.999999998412 -5.62943302905e-05 4.55822333879e-05 5.62944558812e-05 0.999999997377)
    Linear velocity: (0 0 0.0276633961269)
    Angular velocity: (0.00416184948895 -0.00338603457614 -0.000202245973912)
inverseDistance : detected 2 mesh regions
    zone:0 nCells:42875  voxels:(37 37 37) bb:(-1.73205080757e-06 -1.73205080757e-06 -1.73205080757e-06) (1.00000173205 1.00000173205 1.00000173205)
    zone:1 nCells:9552  voxels:(37 37 37) bb:(0.299975758156 0.299970401781 0.0999444344721) (0.700010567127 0.70001270992 0.79998698344)
Overset analysis : nCells : 52427
    calculated   : 47582
    interpolated : 3630 (interpolated from local:3630  mixed local/remote:0  remote:0)
    hole         : 1215

Execution time for mesh.update() = 0.78 s
smoothSolver:  Solving for alpha.water, Initial residual = 0.000134667099739, Final residual = 2.11317233432e-11, No Iterations 2
Phase-1 volume fraction = 0.556042498614  Min(alpha.water) = -4.47212272143e-14  Max(alpha.water) = 1.00000000847
MULES: Correcting alpha.water
MULES: Correcting alpha.water
MULES: Correcting alpha.water
Phase-1 volume fraction = 0.556042453888  Min(alpha.water) = -4.30099110944e-08  Max(alpha.water) = 1.00000005267
smoothSolver:  Solving for alpha.water, Initial residual = 0.000132323884451, Final residual = 2.20992897977e-11, No Iterations 2
Phase-1 volume fraction = 0.556037316311  Min(alpha.water) = -4.3104698458e-14  Max(alpha.water) = 1.00000000768
MULES: Correcting alpha.water
MULES: Correcting alpha.water
MULES: Correcting alpha.water
Phase-1 volume fraction = 0.556037271519  Min(alpha.water) = -4.09813911433e-08  Max(alpha.water) = 1.00000006252
DILUPBiCGStab:  Solving for p_rgh, Initial residual = 0.000921129550485, Final residual = 9.12684192377e-06, No Iterations 3
time step continuity errors : sum local = 8.63569892981e-05, global = 2.92357302313e-06, cumulative = -6.95725113692e-06
DILUPBiCGStab:  Solving for p_rgh, Initial residual = 1.28468140802e-05, Final residual = 8.31643939971e-10, No Iterations 40
time step continuity errors : sum local = 9.02756830212e-09, global = 9.01846707338e-09, cumulative = -6.94823266984e-06
smoothSolver:  Solving for epsilon, Initial residual = 0.00535499856799, Final residual = 6.87928278709e-10, No Iterations 4
smoothSolver:  Solving for k, Initial residual = 0.139455844719, Final residual = 3.647504594e-09, No Iterations 5
PIMPLE: iteration 2
smoothSolver:  Solving for alpha.water, Initial residual = 0.000138357190696, Final residual = 4.39882282582e-11, No Iterations 2
Phase-1 volume fraction = 0.556037828657  Min(alpha.water) = -4.44129883619e-14  Max(alpha.water) = 1.00000000915
MULES: Correcting alpha.water
MULES: Correcting alpha.water
MULES: Correcting alpha.water
Phase-1 volume fraction = 0.556037782481  Min(alpha.water) = -9.0076980151e-08  Max(alpha.water) = 1.00000009659
smoothSolver:  Solving for alpha.water, Initial residual = 0.000152367434341, Final residual = 4.53393092142e-11, No Iterations 2
Phase-1 volume fraction = 0.556027977545  Min(alpha.water) = -4.24917071092e-14  Max(alpha.water) = 1.00000000904
MULES: Correcting alpha.water
MULES: Correcting alpha.water
MULES: Correcting alpha.water
Phase-1 volume fraction = 0.556027931027  Min(alpha.water) = -6.92296500033e-08  Max(alpha.water) = 1.00000011936
DILUPBiCGStab:  Solving for p_rgh, Initial residual = 0.000210493699691, Final residual = 2.06955925556e-06, No Iterations 3
time step continuity errors : sum local = 1.99326894845e-05, global = -2.93802506748e-08, cumulative = -6.97761292052e-06
DILUPBiCGStab:  Solving for p_rgh, Initial residual = 2.64808488796e-06, Final residual = 4.62349826606e-10, No Iterations 32
time step continuity errors : sum local = 5.02376055887e-09, global = -4.8226483347e-09, cumulative = -6.98243556885e-06
smoothSolver:  Solving for epsilon, Initial residual = 0.000825545035218, Final residual = 3.17050822989e-09, No Iterations 3
smoothSolver:  Solving for k, Initial residual = 0.00188669414916, Final residual = 2.05146805493e-09, No Iterations 4
ExecutionTime = 20.73 s  ClockTime = 24 s

Courant Number mean: 0.00932031215023 max: 0.418506639068
Interface Courant Number mean: 0.000877590467871 max: 0.418506639068
deltaT = 0.00695524914269
Time = 0.0374028

PIMPLE: iteration 1
forces forces:
    Not including porosity effects

6-DoF rigid body motion
    Centre of rotation: (0.5 0.5 0.300204989435)
    Centre of mass: (0.5 0.5 0.300204989435)
    Orientation: (0.999999997344 4.35780499663e-06 -7.27597748704e-05 -4.36432842976e-06 0.999999995971 -8.96572193901e-05 7.27593838686e-05 8.96575366995e-05 0.999999993334)
    Linear velocity: (0 0 0.0411422152957)
    Angular velocity: (0.0054317604913 -0.00442886366485 -0.000259511922738)
inverseDistance : detected 2 mesh regions
    zone:0 nCells:42875  voxels:(37 37 37) bb:(-1.73205080757e-06 -1.73205080757e-06 -1.73205080757e-06) (1.00000173205 1.00000173205 1.00000173205)
    zone:1 nCells:9552  voxels:(37 37 37) bb:(0.29996184898 0.299953399228 0.100171607281) (0.700016323087 0.700019703606 0.800238369588)
Overset analysis : nCells : 52427
    calculated   : 47582
    interpolated : 3630 (interpolated from local:3630  mixed local/remote:0  remote:0)
    hole         : 1215

Execution time for mesh.update() = 0.83 s
smoothSolver:  Solving for alpha.water, Initial residual = 0.000181323045805, Final residual = 1.17208802349e-10, No Iterations 2
Phase-1 volume fraction = 0.556015646407  Min(alpha.water) = -4.01075577472e-14  Max(alpha.water) = 1.0000000091
MULES: Correcting alpha.water
MULES: Correcting alpha.water
MULES: Correcting alpha.water
Phase-1 volume fraction = 0.556015589902  Min(alpha.water) = -2.70223961181e-07  Max(alpha.water) = 1.00000024126
smoothSolver:  Solving for alpha.water, Initial residual = 0.000178076911208, Final residual = 1.24730920968e-10, No Iterations 2
Phase-1 volume fraction = 0.556003938962  Min(alpha.water) = -3.77528332948e-14  Max(alpha.water) = 1.00000000916
MULES: Correcting alpha.water
MULES: Correcting alpha.water
MULES: Correcting alpha.water
Phase-1 volume fraction = 0.556003882526  Min(alpha.water) = -3.06746527361e-07  Max(alpha.water) = 1.00000023582
DILUPBiCGStab:  Solving for p_rgh, Initial residual = 0.00114655958963, Final residual = 9.98380540953e-06, No Iterations 3
time step continuity errors : sum local = 0.000130506891096, global = 4.28094896009e-06, cumulative = -2.70148660877e-06
DILUPBiCGStab:  Solving for p_rgh, Initial residual = 1.41400847508e-05, Final residual = 9.14855310029e-10, No Iterations 40
time step continuity errors : sum local = 1.30184570205e-08, global = 1.27298916423e-08, cumulative = -2.68875671712e-06
smoothSolver:  Solving for epsilon, Initial residual = 0.00597548157517, Final residual = 3.36239281103e-09, No Iterations 4
smoothSolver:  Solving for k, Initial residual = 0.137659786982, Final residual = 1.02311213591e-09, No Iterations 6
PIMPLE: iteration 2
smoothSolver:  Solving for alpha.water, Initial residual = 0.00021506326827, Final residual = 2.40178447505e-10, No Iterations 2
Phase-1 volume fraction = 0.556009039091  Min(alpha.water) = -3.3221646236e-14  Max(alpha.water) = 1.0000000088
MULES: Correcting alpha.water
MULES: Correcting alpha.water
MULES: Correcting alpha.water
Phase-1 volume fraction = 0.556008978705  Min(alpha.water) = -4.45487355573e-07  Max(alpha.water) = 1.00000042391
smoothSolver:  Solving for alpha.water, Initial residual = 0.000206262792179, Final residual = 2.45455011481e-10, No Iterations 2
Phase-1 volume fraction = 0.555990725469  Min(alpha.water) = -3.24835902724e-14  Max(alpha.water) = 1.00000000915
MULES: Correcting alpha.water
MULES: Correcting alpha.water
MULES: Correcting alpha.water
Phase-1 volume fraction = 0.555990664377  Min(alpha.water) = -5.83787380989e-07  Max(alpha.water) = 1.00000039297
DILUPBiCGStab:  Solving for p_rgh, Initial residual = 0.000258992214331, Final residual = 2.23561502761e-06, No Iterations 3
time step continuity errors : sum local = 2.90982912071e-05, global = -1.02105872207e-07, cumulative = -2.79086258933e-06
DILUPBiCGStab:  Solving for p_rgh, Initial residual = 2.91833056615e-06, Final residual = 7.92789310279e-10, No Iterations 28
time step continuity errors : sum local = 1.14456724626e-08, global = -1.14428370743e-08, cumulative = -2.80230542641e-06
smoothSolver:  Solving for epsilon, Initial residual = 0.00106496755097, Final residual = 4.47028623536e-10, No Iterations 4
smoothSolver:  Solving for k, Initial residual = 0.00234010774485, Final residual = 7.55665459577e-10, No Iterations 5
ExecutionTime = 22.7 s  ClockTime = 26 s

Courant Number mean: 0.0134348739919 max: 0.522013840681
Interface Courant Number mean: 0.00126871614554 max: 0.522013840681
deltaT = 0.00782465528552
Time = 0.0452274

PIMPLE: iteration 1
forces forces:
    Not including porosity effects

6-DoF rigid body motion
    Centre of rotation: (0.5 0.5 0.300586071074)
    Centre of mass: (0.5 0.5 0.300586071074)
    Orientation: (0.999999993641 6.66510922261e-06 -0.000112572825466 -6.680692881e-06 0.999999990396 -0.000138431987144 0.000112571901721 0.000138432738328 0.999999984082)
    Linear velocity: (0 0 0.0562631336213)
    Angular velocity: (0.00703523229611 -0.00574738381382 -0.00033140116923)
inverseDistance : detected 2 mesh regions
    zone:0 nCells:42875  voxels:(37 37 37) bb:(-1.73205080757e-06 -1.73205080757e-06 -1.73205080757e-06) (1.00000173205 1.00000173205 1.00000173205)
    zone:1 nCells:9552  voxels:(37 37 37) bb:(0.299941481679 0.29992854963 0.100534973171) (0.700024746474 0.700029920774 0.800637164201)
Overset analysis : nCells : 52427
    calculated   : 47582
    interpolated : 3630 (interpolated from local:3630  mixed local/remote:0  remote:0)
    hole         : 1215

Execution time for mesh.update() = 0.84 s
smoothSolver:  Solving for alpha.water, Initial residual = 0.000230877736583, Final residual = 4.71526768667e-10, No Iterations 2
Phase-1 volume fraction = 0.555969347084  Min(alpha.water) = -3.15536639386e-14  Max(alpha.water) = 1.00000000985
MULES: Correcting alpha.water
MULES: Correcting alpha.water
MULES: Correcting alpha.water
Phase-1 volume fraction = 0.555969276997  Min(alpha.water) = -1.42326203893e-05  Max(alpha.water) = 1.00000033014
smoothSolver:  Solving for alpha.water, Initial residual = 0.000227517942049, Final residual = 5.07624376083e-10, No Iterations 2
Phase-1 volume fraction = 0.555948951747  Min(alpha.water) = -3.04902864932e-14  Max(alpha.water) = 1.00000001056
MULES: Correcting alpha.water
MULES: Correcting alpha.water
MULES: Correcting alpha.water
Phase-1 volume fraction = 0.555948899571  Min(alpha.water) = -1.18176893421e-05  Max(alpha.water) = 1.00000022926
DILUPBiCGStab:  Solving for p_rgh, Initial residual = 0.00142522855008, Final residual = 1.11688288161e-05, No Iterations 3
time step continuity errors : sum local = 0.000178312056309, global = 5.45664303909e-06, cumulative = 2.65433761269e-06
DILUPBiCGStab:  Solving for p_rgh, Initial residual = 1.57766248805e-05, Final residual = 9.78678752305e-10, No Iterations 40
time step continuity errors : sum local = 1.70823800264e-08, global = 1.65132795057e-08, cumulative = 2.67085089219e-06
smoothSolver:  Solving for epsilon, Initial residual = 0.00633886822483, Final residual = 6.09336054039e-10, No Iterations 5
smoothSolver:  Solving for k, Initial residual = 0.129463410273, Final residual = 3.55127359315e-09, No Iterations 6
PIMPLE: iteration 2
smoothSolver:  Solving for alpha.water, Initial residual = 0.000315355153771, Final residual = 8.09581702732e-10, No Iterations 2
Phase-1 volume fraction = 0.555960809888  Min(alpha.water) = -3.10351101689e-14  Max(alpha.water) = 1.00000000963
MULES: Correcting alpha.water
MULES: Correcting alpha.water
MULES: Correcting alpha.water
Phase-1 volume fraction = 0.555960731366  Min(alpha.water) = -2.15941895604e-05  Max(alpha.water) = 1.00000056753
smoothSolver:  Solving for alpha.water, Initial residual = 0.00026251893289, Final residual = 8.94892249713e-10, No Iterations 2
Phase-1 volume fraction = 0.555931875076  Min(alpha.water) = -2.90877112519e-14  Max(alpha.water) = 1.00000001094
MULES: Correcting alpha.water
MULES: Correcting alpha.water
MULES: Correcting alpha.water
Phase-1 volume fraction = 0.555931819516  Min(alpha.water) = -3.44058807202e-05  Max(alpha.water) = 1.00000030249
DILUPBiCGStab:  Solving for p_rgh, Initial residual = 0.000281512711248, Final residual = 2.2973902479e-06, No Iterations 3
time step continuity errors : sum local = 3.55675580572e-05, global = -1.1371795828e-06, cumulative = 1.5336713094e-06
DILUPBiCGStab:  Solving for p_rgh, Initial residual = 3.04679531787e-06, Final residual = 8.87726525299e-10, No Iterations 29
time step continuity errors : sum local = 1.55218701236e-08, global = -1.55075281755e-08, cumulative = 1.51816378122e-06
smoothSolver:  Solving for epsilon, Initial residual = 0.00123485234903, Final residual = 1.8372424722e-09, No Iterations 4
smoothSolver:  Solving for k, Initial residual = 0.00262848051909, Final residual = 3.45167434417e-09, No Iterations 5
ExecutionTime = 24.92 s  ClockTime = 28 s

Courant Number mean: 0.0177198741832 max: 0.585976665224
Interface Courant Number mean: 0.00162382648628 max: 0.585976665224
deltaT = 0.00912876449978
Time = 0.0543562

PIMPLE: iteration 1
forces forces:
    Not including porosity effects

6-DoF rigid body motion
    Centre of rotation: (0.5 0.5 0.301179725736)
    Centre of mass: (0.5 0.5 0.301179725736)
    Orientation: (0.999999984971 1.01192975321e-05 -0.00017307969108 -1.01560628576e-05 0.999999977388 -0.000212418923234 0.000173077537636 0.000212420677849 0.999999962461)
    Linear velocity: (0 0 0.0737992996956)
    Angular velocity: (0.00917449311441 -0.00750880663194 -0.000427694941154)
inverseDistance : detected 2 mesh regions
    zone:0 nCells:42875  voxels:(37 37 37) bb:(-1.73205080757e-06 -1.73205080757e-06 -1.73205080757e-06) (1.00000173205 1.00000173205 1.00000173205)
    zone:1 nCells:9552  voxels:(37 37 37) bb:(0.299910539057 0.299890863605 0.101101733357) (0.700037537035 0.700045410718 0.801257706853)
Overset analysis : nCells : 52427
    calculated   : 47582
    interpolated : 3630 (interpolated from local:3630  mixed local/remote:0  remote:0)
    hole         : 1215

Execution time for mesh.update() = 0.75 s
smoothSolver:  Solving for alpha.water, Initial residual = 0.000306214858418, Final residual = 2.03895823354e-09, No Iterations 2
Phase-1 volume fraction = 0.55589702072  Min(alpha.water) = -2.63632023072e-14  Max(alpha.water) = 1.00000001145
MULES: Correcting alpha.water
MULES: Correcting alpha.water
MULES: Correcting alpha.water
Phase-1 volume fraction = 0.555896966575  Min(alpha.water) = -6.4454898368e-06  Max(alpha.water) = 1.00000034795
smoothSolver:  Solving for alpha.water, Initial residual = 0.000302319708121, Final residual = 2.20920957259e-09, No Iterations 2
Phase-1 volume fraction = 0.555863640808  Min(alpha.water) = -2.30428233997e-14  Max(alpha.water) = 1.00000001197
MULES: Correcting alpha.water
MULES: Correcting alpha.water
MULES: Correcting alpha.water
Phase-1 volume fraction = 0.555863588194  Min(alpha.water) = -8.94381824679e-06  Max(alpha.water) = 1.00000026744
DILUPBiCGStab:  Solving for p_rgh, Initial residual = 0.00174329115189, Final residual = 1.14762959454e-05, No Iterations 3
time step continuity errors : sum local = 0.000239083581823, global = 1.33978836351e-05, cumulative = 1.49160474163e-05
DILUPBiCGStab:  Solving for p_rgh, Initial residual = 1.62639722917e-05, Final residual = 5.65971619978e-10, No Iterations 38
time step continuity errors : sum local = 1.23444816414e-08, global = 9.31380331711e-09, cumulative = 1.49253612196e-05
smoothSolver:  Solving for epsilon, Initial residual = 0.00711272374973, Final residual = 3.95107507158e-09, No Iterations 5
smoothSolver:  Solving for k, Initial residual = 0.128189384164, Final residual = 1.83502379916e-09, No Iterations 7
PIMPLE: iteration 2
smoothSolver:  Solving for alpha.water, Initial residual = 0.000439228303141, Final residual = 2.63631096007e-09, No Iterations 2
Phase-1 volume fraction = 0.555885636823  Min(alpha.water) = -2.49346595122e-14  Max(alpha.water) = 1.00000001163
MULES: Correcting alpha.water
MULES: Correcting alpha.water
MULES: Correcting alpha.water
Phase-1 volume fraction = 0.555885570616  Min(alpha.water) = -1.45582056994e-05  Max(alpha.water) = 1.00000052649
smoothSolver:  Solving for alpha.water, Initial residual = 0.000347453078103, Final residual = 3.52872658488e-09, No Iterations 2
Phase-1 volume fraction = 0.555840870209  Min(alpha.water) = -1.89938454362e-14  Max(alpha.water) = 1.00000001252
MULES: Correcting alpha.water
MULES: Correcting alpha.water
MULES: Correcting alpha.water
Phase-1 volume fraction = 0.555840800982  Min(alpha.water) = -1.62322287532e-05  Max(alpha.water) = 1.00000050258
DILUPBiCGStab:  Solving for p_rgh, Initial residual = 0.00030816950181, Final residual = 1.74790413482e-06, No Iterations 3
time step continuity errors : sum local = 3.25606348538e-05, global = -2.14387467668e-06, cumulative = 1.2781486543e-05
DILUPBiCGStab:  Solving for p_rgh, Initial residual = 2.37593395032e-06, Final residual = 8.96979305632e-10, No Iterations 28
time step continuity errors : sum local = 2.01910020402e-08, global = -2.00504531784e-08, cumulative = 1.27614360898e-05
smoothSolver:  Solving for epsilon, Initial residual = 0.00160903390895, Final residual = 8.11210372358e-10, No Iterations 5
smoothSolver:  Solving for k, Initial residual = 0.00315542510792, Final residual = 2.01285249094e-09, No Iterations 6
ExecutionTime = 27.02 s  ClockTime = 30 s

Courant Number mean: 0.0241013613195 max: 0.685067991141
Interface Courant Number mean: 0.00230302849332 max: 0.66942255961
deltaT = 0.0114109556247
Time = 0.0657671

PIMPLE: iteration 1
forces forces:
    Not including porosity effects

6-DoF rigid body motion
    Centre of rotation: (0.5 0.5 0.302145935844)
    Centre of mass: (0.5 0.5 0.302145935844)
    Orientation: (0.999999962564 1.57734096533e-05 -0.000273172756325 -1.58648173992e-05 0.99999994389 -0.000334616226676 0.000273167462959 0.000334620547985 0.999999906704)
    Linear velocity: (0 0 0.0955484989677)
    Angular velocity: (0.0122432475807 -0.0100342783047 -0.000568101349594)
inverseDistance : detected 2 mesh regions
    zone:0 nCells:42875  voxels:(37 37 37) bb:(-1.73205080757e-06 -1.73205080757e-06 -1.73205080757e-06) (1.00000173205 1.00000173205 1.00000173205)
    zone:1 nCells:9552  voxels:(37 37 37) bb:(0.299859366043 0.299828629761 0.102023496517) (0.70005868213 0.700070985371 0.802268347182)
Overset analysis : nCells : 52427
    calculated   : 47582
    interpolated : 3630 (interpolated from local:3630  mixed local/remote:0  remote:0)
    hole         : 1215

Execution time for mesh.update() = 0.8 s
smoothSolver:  Solving for alpha.water, Initial residual = 0.00043272662844, Final residual = 1.19751000724e-10, No Iterations 3
Phase-1 volume fraction = 0.555783448368  Min(alpha.water) = -1.03449018324e-14  Max(alpha.water) = 1.0000000117
MULES: Correcting alpha.water
MULES: Correcting alpha.water
MULES: Correcting alpha.water
Phase-1 volume fraction = 0.555783335468  Min(alpha.water) = -3.02431253228e-05  Max(alpha.water) = 1.00000131167
smoothSolver:  Solving for alpha.water, Initial residual = 0.000426256133694, Final residual = 1.2663342307e-10, No Iterations 3
Phase-1 volume fraction = 0.555728097182  Min(alpha.water) = -5.38332777321e-16  Max(alpha.water) = 1.00000001176
MULES: Correcting alpha.water
MULES: Correcting alpha.water
MULES: Correcting alpha.water
Phase-1 volume fraction = 0.555727958302  Min(alpha.water) = -2.83690067107e-05  Max(alpha.water) = 1.00000174546
DILUPBiCGStab:  Solving for p_rgh, Initial residual = 0.00236761959715, Final residual = 1.41123982649e-05, No Iterations 3
time step continuity errors : sum local = 0.000433417859612, global = 3.16032735524e-05, cumulative = 4.43647096422e-05
DILUPBiCGStab:  Solving for p_rgh, Initial residual = 1.99796070156e-05, Final residual = 6.70816319812e-10, No Iterations 41
time step continuity errors : sum local = 1.9968940898e-08, global = 1.44502343344e-08, cumulative = 4.43791598765e-05
smoothSolver:  Solving for epsilon, Initial residual = 0.0087590118439, Final residual = 4.20131604811e-09, No Iterations 6
smoothSolver:  Solving for k, Initial residual = 0.134455500269, Final residual = 3.13803069094e-09, No Iterations 8
PIMPLE: iteration 2
smoothSolver:  Solving for alpha.water, Initial residual = 0.000597056122962, Final residual = 1.49198762093e-10, No Iterations 3
Phase-1 volume fraction = 0.555766372757  Min(alpha.water) = -5.21248516467e-15  Max(alpha.water) = 1.00000002089
MULES: Correcting alpha.water
MULES: Correcting alpha.water
MULES: Correcting alpha.water
Phase-1 volume fraction = 0.555766226165  Min(alpha.water) = -3.47393035943e-05  Max(alpha.water) = 1.00000224997
smoothSolver:  Solving for alpha.water, Initial residual = 0.000490749527412, Final residual = 2.21614657534e-10, No Iterations 3
Phase-1 volume fraction = 0.555693947155  Min(alpha.water) = -7.41916037497e-17  Max(alpha.water) = 1.00000003971
MULES: Correcting alpha.water
MULES: Correcting alpha.water
MULES: Correcting alpha.water
Phase-1 volume fraction = 0.555693755486  Min(alpha.water) = -3.30832828332e-05  Max(alpha.water) = 1.00000308034
DILUPBiCGStab:  Solving for p_rgh, Initial residual = 0.00040950850657, Final residual = 2.06249425172e-06, No Iterations 3
time step continuity errors : sum local = 5.57620863349e-05, global = -9.17780530236e-06, cumulative = 3.52013545741e-05
DILUPBiCGStab:  Solving for p_rgh, Initial residual = 2.91145388459e-06, Final residual = 7.81275045354e-10, No Iterations 32
time step continuity errors : sum local = 2.065622887e-08, global = -9.15840816825e-09, cumulative = 3.5192196166e-05
smoothSolver:  Solving for epsilon, Initial residual = 0.00226675751866, Final residual = 1.16346028511e-09, No Iterations 6
smoothSolver:  Solving for k, Initial residual = 0.00396590136579, Final residual = 3.34107856186e-09, No Iterations 7
ExecutionTime = 29.16 s  ClockTime = 32 s

Courant Number mean: 0.034911983209 max: 0.858120862519
Interface Courant Number mean: 0.00344824461763 max: 0.751913992869
deltaT = 0.0114109556247
Time = 0.0771781

PIMPLE: iteration 1
forces forces:
    Not including porosity effects

6-DoF rigid body motion
    Centre of rotation: (0.5 0.5 0.303359909443)
    Centre of mass: (0.5 0.5 0.303359909443)
    Orientation: (0.999999917833 2.31653162569e-05 -0.000404719913514 -2.33656939127e-05 0.999999877163 -0.000495104329733 0.000404708394551 0.000495113745613 0.999999795537)
    Linear velocity: (0 0 0.11722484604)
    Angular velocity: (0.0158859337605 -0.0130215240101 -0.000737044637033)
inverseDistance : detected 2 mesh regions
    zone:0 nCells:42875  voxels:(37 37 37) bb:(-1.73205080757e-06 -1.73205080757e-06 -1.73205080757e-06) (1.00000173205 1.00000173205 1.00000173205)
    zone:1 nCells:9552  voxels:(37 37 37) bb:(0.299792122845 0.299746898696 0.103179085339) (0.70008646118 0.700104570005 0.803540672207)
Overset analysis : nCells : 52427
    calculated   : 47582
    interpolated : 3630 (interpolated from local:3630  mixed local/remote:0  remote:0)
    hole         : 1215

Execution time for mesh.update() = 0.9 s
smoothSolver:  Solving for alpha.water, Initial residual = 0.000491476669156, Final residual = 2.38257113927e-10, No Iterations 3
Phase-1 volume fraction = 0.555624939633  Min(alpha.water) = -7.4005903208e-17  Max(alpha.water) = 1.00000002669
MULES: Correcting alpha.water
MULES: Correcting alpha.water
MULES: Correcting alpha.water
Phase-1 volume fraction = 0.555624313236  Min(alpha.water) = -3.43082009701e-05  Max(alpha.water) = 1.00000409453
smoothSolver:  Solving for alpha.water, Initial residual = 0.000486176422212, Final residual = 2.472449567e-10, No Iterations 3
Phase-1 volume fraction = 0.555554278877  Min(alpha.water) = -7.38206699119e-17  Max(alpha.water) = 1.00000004843
MULES: Correcting alpha.water
MULES: Correcting alpha.water
MULES: Correcting alpha.water
Phase-1 volume fraction = 0.555553528563  Min(alpha.water) = -3.81676968178e-05  Max(alpha.water) = 1.00000530946
DILUPBiCGStab:  Solving for p_rgh, Initial residual = 0.00293755929495, Final residual = 1.79346464164e-05, No Iterations 3
time step continuity errors : sum local = 0.000533118434118, global = 3.86374523054e-05, cumulative = 7.38296484714e-05
DILUPBiCGStab:  Solving for p_rgh, Initial residual = 2.41694461819e-05, Final residual = 6.75402206258e-10, No Iterations 37
time step continuity errors : sum local = 1.872763715e-08, global = 1.58565147523e-08, cumulative = 7.38455049861e-05
smoothSolver:  Solving for epsilon, Initial residual = 0.00923174796519, Final residual = 8.25903451923e-09, No Iterations 6
smoothSolver:  Solving for k, Initial residual = 0.11363928766, Final residual = 4.69052525061e-09, No Iterations 8
PIMPLE: iteration 2
smoothSolver:  Solving for alpha.water, Initial residual = 0.000709069681553, Final residual = 2.25347371124e-10, No Iterations 3
Phase-1 volume fraction = 0.555606099387  Min(alpha.water) = -7.02265012347e-16  Max(alpha.water) = 1.00000006033
MULES: Correcting alpha.water
MULES: Correcting alpha.water
MULES: Correcting alpha.water
Phase-1 volume fraction = 0.555605293739  Min(alpha.water) = -4.94050895018e-05  Max(alpha.water) = 1.0000057709
smoothSolver:  Solving for alpha.water, Initial residual = 0.000546671110029, Final residual = 3.43581488395e-10, No Iterations 3
Phase-1 volume fraction = 0.555516504727  Min(alpha.water) = -7.37954542053e-17  Max(alpha.water) = 1.00000010959
MULES: Correcting alpha.water
MULES: Correcting alpha.water
MULES: Correcting alpha.water
Phase-1 volume fraction = 0.555515508644  Min(alpha.water) = -4.80050139151e-05  Max(alpha.water) = 1.00000844585
DILUPBiCGStab:  Solving for p_rgh, Initial residual = 0.000394826955173, Final residual = 2.44154042823e-06, No Iterations 3
time step continuity errors : sum local = 5.98503614732e-05, global = -1.51403085841e-05, cumulative = 5.8705196402e-05
DILUPBiCGStab:  Solving for p_rgh, Initial residual = 3.40270718766e-06, Final residual = 6.09654949829e-10, No Iterations 32
time step continuity errors : sum local = 1.86047658684e-08, global = -1.70769733398e-08, cumulative = 5.86881194287e-05
smoothSolver:  Solving for epsilon, Initial residual = 0.00208846796217, Final residual = 2.00371903679e-09, No Iterations 6
smoothSolver:  Solving for k, Initial residual = 0.00318738396351, Final residual = 4.19788441556e-09, No Iterations 7
ExecutionTime = 31.31 s  ClockTime = 34 s

Courant Number mean: 0.0391178524692 max: 0.915853640496
Interface Courant Number mean: 0.0037074759285 max: 0.840863308407
deltaT = 0.0114109556247
Time = 0.088589

PIMPLE: iteration 1
forces forces:
    Not including porosity effects

6-DoF rigid body motion
    Centre of rotation: (0.5 0.5 0.304818940437)
    Centre of mass: (0.5 0.5 0.304818940437)
    Orientation: (0.999999834672 3.26853395823e-05 -0.000574096581392 -3.3088282725e-05 0.999999753136 -0.00070187796649 0.000574073498549 0.00070189684632 0.99999958889)
    Linear velocity: (0 0 0.138499747501)
    Angular velocity: (0.0203560838905 -0.0166642328084 -0.000949296834538)
inverseDistance : detected 2 mesh regions
    zone:0 nCells:42875  voxels:(37 37 37) bb:(-1.73205080757e-06 -1.73205080757e-06 -1.73205080757e-06) (1.00000173205 1.00000173205 1.00000173205)
    zone:1 nCells:9552  voxels:(37 37 37) bb:(0.299705546902 0.299641591928 0.104562927785) (0.700122224124 0.700147844682 0.805074829757)
Overset analysis : nCells : 52427
    calculated   : 47582
    interpolated : 3630 (interpolated from local:3630  mixed local/remote:0  remote:0)
    hole         : 1215

Execution time for mesh.update() = 0.75 s
smoothSolver:  Solving for alpha.water, Initial residual = 0.000547249197905, Final residual = 3.64353218543e-10, No Iterations 3
Phase-1 volume fraction = 0.555432409418  Min(alpha.water) = -7.35912987366e-17  Max(alpha.water) = 1.00000010397
MULES: Correcting alpha.water
MULES: Correcting alpha.water
MULES: Correcting alpha.water
Phase-1 volume fraction = 0.55543065906  Min(alpha.water) = -6.63340100607e-05  Max(alpha.water) = 1.00000918697
smoothSolver:  Solving for alpha.water, Initial residual = 0.000543205280256, Final residual = 3.69908698784e-10, No Iterations 3
Phase-1 volume fraction = 0.555344971185  Min(alpha.water) = -7.33877281579e-17  Max(alpha.water) = 1.00000009836
MULES: Correcting alpha.water
MULES: Correcting alpha.water
MULES: Correcting alpha.water
Phase-1 volume fraction = 0.555342953819  Min(alpha.water) = -6.95201528866e-05  Max(alpha.water) = 1.00000716984
DILUPBiCGStab:  Solving for p_rgh, Initial residual = 0.00302782871656, Final residual = 1.92784056024e-05, No Iterations 3
time step continuity errors : sum local = 0.000591503768122, global = 4.14757888809e-05, cumulative = 0.00010016390831
DILUPBiCGStab:  Solving for p_rgh, Initial residual = 2.57302520881e-05, Final residual = 8.6199545189e-10, No Iterations 35
time step continuity errors : sum local = 2.0959977499e-08, global = -6.17764270811e-09, cumulative = 0.000100157730667
smoothSolver:  Solving for epsilon, Initial residual = 0.0110893563937, Final residual = 1.68100220092e-09, No Iterations 7
smoothSolver:  Solving for k, Initial residual = 0.0984320011945, Final residual = 6.50511625605e-09, No Iterations 8
PIMPLE: iteration 2
smoothSolver:  Solving for alpha.water, Initial residual = 0.000856672304185, Final residual = 2.9564031386e-10, No Iterations 3
Phase-1 volume fraction = 0.555414812743  Min(alpha.water) = -1.17056992708e-15  Max(alpha.water) = 1.00000008973
MULES: Correcting alpha.water
MULES: Correcting alpha.water
MULES: Correcting alpha.water
Phase-1 volume fraction = 0.555412694025  Min(alpha.water) = -8.25525457479e-05  Max(alpha.water) = 1.00001335668
smoothSolver:  Solving for alpha.water, Initial residual = 0.000598725570127, Final residual = 4.24946927534e-10, No Iterations 3
Phase-1 volume fraction = 0.55530954775  Min(alpha.water) = -7.33579829508e-17  Max(alpha.water) = 1.00000009804
MULES: Correcting alpha.water
MULES: Correcting alpha.water
MULES: Correcting alpha.water
Phase-1 volume fraction = 0.555307049999  Min(alpha.water) = -9.12809299395e-05  Max(alpha.water) = 1.00000863128
DILUPBiCGStab:  Solving for p_rgh, Initial residual = 0.000366778043501, Final residual = 2.5430769799e-06, No Iterations 3
time step continuity errors : sum local = 6.75481041166e-05, global = -1.64606355586e-05, cumulative = 8.36970951083e-05
[...]
smoothSolver:  Solving for epsilon, Initial residual = 0.00569570023087, Final residual = 1.77582136898e-09, No Iterations 6
smoothSolver:  Solving for k, Initial residual = 0.00545382835909, Final residual = 2.53738346238e-09, No Iterations 7
PIMPLE: iteration 2
smoothSolver:  Solving for alpha.water, Initial residual = 0.000644087475008, Final residual = 3.5844519016e-09, No Iterations 2
Phase-1 volume fraction = 0.540947474053  Min(alpha.water) = -3.45549877186e-06  Max(alpha.water) = 1.00000324595
MULES: Correcting alpha.water
MULES: Correcting alpha.water
MULES: Correcting alpha.water
Phase-1 volume fraction = 0.540948243823  Min(alpha.water) = -3.45549877185e-06  Max(alpha.water) = 1.00000324595
smoothSolver:  Solving for alpha.water, Initial residual = 0.000419079835971, Final residual = 2.1161932251e-09, No Iterations 2
Phase-1 volume fraction = 0.540600373039  Min(alpha.water) = -2.62234057422e-06  Max(alpha.water) = 1.00000324082
MULES: Correcting alpha.water
MULES: Correcting alpha.water
MULES: Correcting alpha.water
Phase-1 volume fraction = 0.540601168928  Min(alpha.water) = -2.62234057421e-06  Max(alpha.water) = 1.00000324082
DILUPBiCGStab:  Solving for p_rgh, Initial residual = 0.000339613030425, Final residual = 2.26835208922e-06, No Iterations 6
time step continuity errors : sum local = 0.000129538440288, global = -0.000109008326214, cumulative = -0.00696017297827
DILUPBiCGStab:  Solving for p_rgh, Initial residual = 4.4000754487e-06, Final residual = 9.40657434543e-10, No Iterations 32
time step continuity errors : sum local = 3.84715561881e-08, global = -2.41624793878e-08, cumulative = -0.00696019714075
smoothSolver:  Solving for epsilon, Initial residual = 0.00124138286978, Final residual = 1.28456553609e-09, No Iterations 5
smoothSolver:  Solving for k, Initial residual = 0.00100518632605, Final residual = 5.60945814562e-09, No Iterations 5
ExecutionTime = 578.83 s  ClockTime = 597 s

Courant Number mean: 0.0541008467351 max: 1.60464157777
Interface Courant Number mean: 0.00509862393981 max: 1.60464157777
deltaT = 0.0166666666667
Time = 3.95

PIMPLE: iteration 1
forces forces:
    Not including porosity effects

6-DoF rigid body motion
    Centre of rotation: (0.5 0.5 0.393377475172)
    Centre of mass: (0.5 0.5 0.393377475172)
    Orientation: (0.999471852483 0.0259522370886 -0.0195575429066 -0.0264677614307 0.99929627483 -0.0265784257536 0.0188540101648 0.0270820328039 0.999455396604)
    Linear velocity: (0 0 0.249581879083)
    Angular velocity: (0.397772229619 -0.346884089349 -0.00999337975374)
inverseDistance : detected 2 mesh regions
    zone:0 nCells:42875  voxels:(37 37 37) bb:(-1.73205080757e-06 -1.73205080757e-06 -1.73205080757e-06) (1.00000173205 1.00000173205 1.00000173205)
    zone:1 nCells:9552  voxels:(37 37 37) bb:(0.28513547301 0.281557042249 0.184298249636) (0.708997264118 0.710469430025 0.90229331969)
Overset analysis : nCells : 52427
    calculated   : 47028
    interpolated : 3770 (interpolated from local:3770  mixed local/remote:0  remote:0)
    hole         : 1629

Execution time for mesh.update() = 0.78 s
smoothSolver:  Solving for alpha.water, Initial residual = 0.000422179575486, Final residual = 3.41937754916e-09, No Iterations 2
Phase-1 volume fraction = 0.540232491236  Min(alpha.water) = -1.84830239069e-06  Max(alpha.water) = 1.00252500849
MULES: Correcting alpha.water
MULES: Correcting alpha.water
MULES: Correcting alpha.water
Phase-1 volume fraction = 0.540230024441  Min(alpha.water) = -1.84830239068e-06  Max(alpha.water) = 1.00252458976
smoothSolver:  Solving for alpha.water, Initial residual = 0.000419709651305, Final residual = 2.88139781972e-09, No Iterations 2
Phase-1 volume fraction = 0.539886272825  Min(alpha.water) = -1.12690072927e-06  Max(alpha.water) = 1.00502242171
MULES: Correcting alpha.water
MULES: Correcting alpha.water
MULES: Correcting alpha.water
Phase-1 volume fraction = 0.539883211505  Min(alpha.water) = -1.12690072926e-06  Max(alpha.water) = 1.00502209765
DILUPBiCGStab:  Solving for p_rgh, Initial residual = 0.00529824535792, Final residual = 2.15861120319e-05, No Iterations 3
time step continuity errors : sum local = 0.00119574921453, global = -0.000344809624886, cumulative = -0.00730500676563
DILUPBiCGStab:  Solving for p_rgh, Initial residual = 2.83870014563e-05, Final residual = 8.43362574739e-10, No Iterations 36
time step continuity errors : sum local = 4.26545513219e-08, global = 2.83924939578e-08, cumulative = -0.00730497837314
smoothSolver:  Solving for epsilon, Initial residual = 0.00645271022099, Final residual = 2.5036607381e-09, No Iterations 6
smoothSolver:  Solving for k, Initial residual = 0.00596473131247, Final residual = 2.69249681663e-09, No Iterations 7
PIMPLE: iteration 2
smoothSolver:  Solving for alpha.water, Initial residual = 0.000601639031182, Final residual = 4.28389183546e-10, No Iterations 3
Phase-1 volume fraction = 0.540236392424  Min(alpha.water) = -1.73308967537e-08  Max(alpha.water) = 1.00000322516
MULES: Correcting alpha.water
MULES: Correcting alpha.water
MULES: Correcting alpha.water
Phase-1 volume fraction = 0.540232074518  Min(alpha.water) = -1.39132486714e-07  Max(alpha.water) = 1.00000322516
smoothSolver:  Solving for alpha.water, Initial residual = 0.000413026265853, Final residual = 3.4039210738e-09, No Iterations 2
Phase-1 volume fraction = 0.539892177492  Min(alpha.water) = -1.73308967537e-08  Max(alpha.water) = 1.0000032095
MULES: Correcting alpha.water
MULES: Correcting alpha.water
MULES: Correcting alpha.water
Phase-1 volume fraction = 0.539887435249  Min(alpha.water) = -1.69076821286e-07  Max(alpha.water) = 1.0000032095
DILUPBiCGStab:  Solving for p_rgh, Initial residual = 0.000379667088584, Final residual = 2.44768217307e-06, No Iterations 6
time step continuity errors : sum local = 0.000152444545186, global = 6.25670694989e-05, cumulative = -0.00724241130364
DILUPBiCGStab:  Solving for p_rgh, Initial residual = 6.68136598991e-06, Final residual = 1.92246817791e-10, No Iterations 33
time step continuity errors : sum local = 1.14918664931e-08, global = 1.94926483561e-09, cumulative = -0.00724240935437
smoothSolver:  Solving for epsilon, Initial residual = 0.00191384510583, Final residual = 1.92167797013e-09, No Iterations 5
smoothSolver:  Solving for k, Initial residual = 0.00109016304247, Final residual = 5.70189256058e-09, No Iterations 5
ExecutionTime = 580.94 s  ClockTime = 599 s

Courant Number mean: 0.050544722182 max: 1.27942535089
Interface Courant Number mean: 0.0048118971832 max: 1.27942535089
deltaT = 0.0166666666667
Time = 3.96667

PIMPLE: iteration 1
forces forces:
    Not including porosity effects

6-DoF rigid body motion
    Centre of rotation: (0.5 0.5 0.397449944164)
    Centre of mass: (0.5 0.5 0.397449944164)
    Orientation: (0.999343102265 0.0259434734696 -0.0253041526218 -0.0267764907673 0.999091416927 -0.0331566006155 0.0244209643087 0.0338123765287 0.999129791216)
    Linear velocity: (0 0 0.239114399884)
    Angular velocity: (0.392589709582 -0.342625031063 -0.00996601878851)
inverseDistance : detected 2 mesh regions
    zone:0 nCells:42875  voxels:(37 37 37) bb:(-1.73205080757e-06 -1.73205080757e-06 -1.73205080757e-06) (1.00000173205 1.00000173205 1.00000173205)
    zone:1 nCells:9552  voxels:(37 37 37) bb:(0.282289663407 0.278247173018 0.185976372618) (0.710119090806 0.711805846797 0.908662453074)
Overset analysis : nCells : 52427
    calculated   : 47099
    interpolated : 3755 (interpolated from local:3755  mixed local/remote:0  remote:0)
    hole         : 1573

Execution time for mesh.update() = 0.74 s
smoothSolver:  Solving for alpha.water, Initial residual = 0.000413460812616, Final residual = 3.74692879663e-09, No Iterations 2
Phase-1 volume fraction = 0.539512657281  Min(alpha.water) = -1.73308967537e-08  Max(alpha.water) = 1.0026750309
MULES: Correcting alpha.water
MULES: Correcting alpha.water
MULES: Correcting alpha.water
Phase-1 volume fraction = 0.539508900106  Min(alpha.water) = -1.73308967537e-08  Max(alpha.water) = 1.00266954634
smoothSolver:  Solving for alpha.water, Initial residual = 0.000409278955123, Final residual = 2.71195329268e-09, No Iterations 2
Phase-1 volume fraction = 0.539181567446  Min(alpha.water) = -1.73308967537e-08  Max(alpha.water) = 1.00532101328
MULES: Correcting alpha.water
MULES: Correcting alpha.water
MULES: Correcting alpha.water
Phase-1 volume fraction = 0.539178622704  Min(alpha.water) = -1.73308967537e-08  Max(alpha.water) = 1.00531015705
DILUPBiCGStab:  Solving for p_rgh, Initial residual = 0.0049145525265, Final residual = 2.39160004113e-05, No Iterations 3
time step continuity errors : sum local = 0.00140831975288, global = -5.4143847741e-05, cumulative = -0.00729655320211
DILUPBiCGStab:  Solving for p_rgh, Initial residual = 3.04069978128e-05, Final residual = 6.14173721756e-10, No Iterations 40
time step continuity errors : sum local = 2.8358100765e-08, global = -2.02977074229e-08, cumulative = -0.00729657349982
smoothSolver:  Solving for epsilon, Initial residual = 0.00602088989508, Final residual = 4.68252885556e-09, No Iterations 6
smoothSolver:  Solving for k, Initial residual = 0.00553528809874, Final residual = 4.55449452264e-09, No Iterations 7
PIMPLE: iteration 2
smoothSolver:  Solving for alpha.water, Initial residual = 0.00060067787742, Final residual = 6.74287489312e-10, No Iterations 3
Phase-1 volume fraction = 0.539518615478  Min(alpha.water) = -1.73308967537e-08  Max(alpha.water) = 1.00000322731
MULES: Correcting alpha.water
MULES: Correcting alpha.water
MULES: Correcting alpha.water
Phase-1 volume fraction = 0.539513549865  Min(alpha.water) = -3.85430857782e-07  Max(alpha.water) = 1.00000322731
smoothSolver:  Solving for alpha.water, Initial residual = 0.000396606925871, Final residual = 2.14189847145e-09, No Iterations 2
Phase-1 volume fraction = 0.539193403411  Min(alpha.water) = -1.73308967537e-08  Max(alpha.water) = 1.00000324511
MULES: Correcting alpha.water
MULES: Correcting alpha.water
MULES: Correcting alpha.water
Phase-1 volume fraction = 0.539189110539  Min(alpha.water) = -6.40989231001e-07  Max(alpha.water) = 1.00000324511
DILUPBiCGStab:  Solving for p_rgh, Initial residual = 0.000381077672725, Final residual = 3.74108793756e-06, No Iterations 3
time step continuity errors : sum local = 0.00022902181446, global = 2.02973058904e-05, cumulative = -0.00727627619393
DILUPBiCGStab:  Solving for p_rgh, Initial residual = 6.82546900452e-06, Final residual = 8.79979560468e-10, No Iterations 31
time step continuity errors : sum local = 4.2169830135e-08, global = 3.53880619986e-08, cumulative = -0.00727624080587
smoothSolver:  Solving for epsilon, Initial residual = 0.00253368990502, Final residual = 3.47584472313e-09, No Iterations 5
smoothSolver:  Solving for k, Initial residual = 0.00182337578793, Final residual = 2.37345954139e-09, No Iterations 6
ExecutionTime = 583.02 s  ClockTime = 601 s

Courant Number mean: 0.0489902363765 max: 2.14743682125
Interface Courant Number mean: 0.00440910744726 max: 1.40132711878
deltaT = 0.0166666666667
Time = 3.98333

PIMPLE: iteration 1
forces forces:
    Not including porosity effects

6-DoF rigid body motion
    Centre of rotation: (0.5 0.5 0.401334223886)
    Centre of mass: (0.5 0.5 0.401334223886)
    Orientation: (0.999184627028 0.0258984981675 -0.0309733579733 -0.0271184456471 0.998846044146 -0.0396379868353 0.0299110517562 0.0404456164169 0.998733939093)
    Linear velocity: (0 0 0.226999166759)
    Angular velocity: (0.386543034328 -0.337706474416 -0.00991924222563)
inverseDistance : detected 2 mesh regions
    zone:0 nCells:42875  voxels:(37 37 37) bb:(-1.73205080757e-06 -1.73205080757e-06 -1.73205080757e-06) (1.00000173205 1.00000173205 1.00000173205)
    zone:1 nCells:9552  voxels:(37 37 37) bb:(0.279495743483 0.274987156133 0.187515149942) (0.711212249125 0.713121447817 0.914773479558)
Overset analysis : nCells : 52427
    calculated   : 47129
    interpolated : 3745 (interpolated from local:3745  mixed local/remote:0  remote:0)
    hole         : 1553

Execution time for mesh.update() = 0.81 s
smoothSolver:  Solving for alpha.water, Initial residual = 0.000424126711737, Final residual = 1.70686414265e-09, No Iterations 2
Phase-1 volume fraction = 0.538913513802  Min(alpha.water) = -3.02293831784e-09  Max(alpha.water) = 1.02855028935
MULES: Correcting alpha.water
MULES: Correcting alpha.water
MULES: Correcting alpha.water
Phase-1 volume fraction = 0.538914415767  Min(alpha.water) = -6.50010333333e-09  Max(alpha.water) = 1.02855022041
smoothSolver:  Solving for alpha.water, Initial residual = 0.000419087217744, Final residual = 1.77263211771e-09, No Iterations 2
Phase-1 volume fraction = 0.53862747225  Min(alpha.water) = -2.9702606713e-09  Max(alpha.water) = 1.05640379933
MULES: Correcting alpha.water
MULES: Correcting alpha.water
MULES: Correcting alpha.water
Phase-1 volume fraction = 0.538628319135  Min(alpha.water) = -6.64531391235e-09  Max(alpha.water) = 1.05640371203
DILUPBiCGStab:  Solving for p_rgh, Initial residual = 0.00499986985704, Final residual = 3.20368792355e-05, No Iterations 3
time step continuity errors : sum local = 0.00180544880912, global = 4.09227682781e-06, cumulative = -0.00727214852904
DILUPBiCGStab:  Solving for p_rgh, Initial residual = 3.98217808626e-05, Final residual = 4.20595454783e-10, No Iterations 43
time step continuity errors : sum local = 1.93674250348e-08, global = 1.71801893711e-08, cumulative = -0.00727213134885
smoothSolver:  Solving for epsilon, Initial residual = 0.00588755365177, Final residual = 4.97194104281e-09, No Iterations 6
smoothSolver:  Solving for k, Initial residual = 0.00574534236525, Final residual = 5.27605623077e-09, No Iterations 7
PIMPLE: iteration 2
smoothSolver:  Solving for alpha.water, Initial residual = 0.000654368069329, Final residual = 1.32487082096e-09, No Iterations 2
Phase-1 volume fraction = 0.538908671697  Min(alpha.water) = -3.01396778215e-09  Max(alpha.water) = 1.00000323207
MULES: Correcting alpha.water
MULES: Correcting alpha.water
MULES: Correcting alpha.water
Phase-1 volume fraction = 0.538909288523  Min(alpha.water) = -6.9919869603e-09  Max(alpha.water) = 1.00000323207
smoothSolver:  Solving for alpha.water, Initial residual = 0.000369607240701, Final residual = 8.03288646187e-10, No Iterations 2
Phase-1 volume fraction = 0.538619135031  Min(alpha.water) = -2.95260962434e-09  Max(alpha.water) = 1.00000321903
MULES: Correcting alpha.water
MULES: Correcting alpha.water
MULES: Correcting alpha.water
Phase-1 volume fraction = 0.538619740862  Min(alpha.water) = -8.46133120235e-09  Max(alpha.water) = 1.00000406656
DILUPBiCGStab:  Solving for p_rgh, Initial residual = 0.000454939183429, Final residual = 4.44078648481e-06, No Iterations 7
time step continuity errors : sum local = 0.000255107862618, global = -0.000228956901118, cumulative = -0.00750108824997
DILUPBiCGStab:  Solving for p_rgh, Initial residual = 7.30756170439e-06, Final residual = 7.21937477257e-10, No Iterations 37
time step continuity errors : sum local = 4.16700042404e-08, global = 6.27044232595e-10, cumulative = -0.00750108762293
smoothSolver:  Solving for epsilon, Initial residual = 0.00291197288202, Final residual = 6.07137963173e-09, No Iterations 5
smoothSolver:  Solving for k, Initial residual = 0.00259745870456, Final residual = 4.08838069983e-09, No Iterations 6
ExecutionTime = 585.15 s  ClockTime = 603 s

Courant Number mean: 0.0485887234062 max: 1.26329181014
Interface Courant Number mean: 0.004243356578 max: 1.26329181014
deltaT = 0.0166666666667
Time = 4

PIMPLE: iteration 1
forces forces:
    Not including porosity effects

6-DoF rigid body motion
    Centre of rotation: (0.5 0.5 0.405014882504)
    Centre of mass: (0.5 0.5 0.405014882504)
    Orientation: (0.998998085526 0.0258197626507 -0.0365535904246 -0.027491930306 0.998562726738 -0.0460073313562 0.0353131545506 0.0469661647054 0.998272087403)
    Linear velocity: (0 0 0.214679867396)
    Angular velocity: (0.379570873636 -0.332097210671 -0.00993487033115)
inverseDistance : detected 2 mesh regions
    zone:0 nCells:42875  voxels:(37 37 37) bb:(-1.73205080757e-06 -1.73205080757e-06 -1.73205080757e-06) (1.00000173205 1.00000173205 1.00000173205)
    zone:1 nCells:9552  voxels:(37 37 37) bb:(0.276758675476 0.271784443236 0.188903641495) (0.712275247397 0.714413357357 0.920607749734)
Overset analysis : nCells : 52427
    calculated   : 47042
    interpolated : 3760 (interpolated from local:3760  mixed local/remote:0  remote:0)
    hole         : 1625

Execution time for mesh.update() = 0.91 s
smoothSolver:  Solving for alpha.water, Initial residual = 0.000371781159044, Final residual = 1.18799971206e-09, No Iterations 2
Phase-1 volume fraction = 0.538342482705  Min(alpha.water) = -2.89207423979e-09  Max(alpha.water) = 1.01333678111
MULES: Correcting alpha.water
MULES: Correcting alpha.water
MULES: Correcting alpha.water
Phase-1 volume fraction = 0.538343993954  Min(alpha.water) = -3.08460551278e-08  Max(alpha.water) = 1.01333195048
smoothSolver:  Solving for alpha.water, Initial residual = 0.000369065624004, Final residual = 1.16456032813e-09, No Iterations 2
Phase-1 volume fraction = 0.538052757523  Min(alpha.water) = -2.8310887619e-09  Max(alpha.water) = 1.02651451531
MULES: Correcting alpha.water
MULES: Correcting alpha.water
MULES: Correcting alpha.water
Phase-1 volume fraction = 0.538054105406  Min(alpha.water) = -3.1270343824e-08  Max(alpha.water) = 1.02650971756
DILUPBiCGStab:  Solving for p_rgh, Initial residual = 0.00410070881592, Final residual = 3.81845032115e-05, No Iterations 3
time step continuity errors : sum local = 0.00223840828885, global = 4.93436022232e-05, cumulative = -0.0074517440207
DILUPBiCGStab:  Solving for p_rgh, Initial residual = 4.75190798241e-05, Final residual = 8.42051828922e-10, No Iterations 38
time step continuity errors : sum local = 4.01689489251e-08, global = 2.16699348739e-09, cumulative = -0.00745174185371
smoothSolver:  Solving for epsilon, Initial residual = 0.00628422348061, Final residual = 4.25073284749e-09, No Iterations 6
smoothSolver:  Solving for k, Initial residual = 0.00604131117811, Final residual = 4.64973024569e-09, No Iterations 7
PIMPLE: iteration 2
smoothSolver:  Solving for alpha.water, Initial residual = 0.000561548112067, Final residual = 3.23563353337e-09, No Iterations 2
Phase-1 volume fraction = 0.538351649757  Min(alpha.water) = -2.88504335006e-09  Max(alpha.water) = 1.00000320587
MULES: Correcting alpha.water
MULES: Correcting alpha.water
MULES: Correcting alpha.water
Phase-1 volume fraction = 0.538353360011  Min(alpha.water) = -1.25624610102e-08  Max(alpha.water) = 1.000003546
smoothSolver:  Solving for alpha.water, Initial residual = 0.000349426480219, Final residual = 1.18604701753e-09, No Iterations 2
Phase-1 volume fraction = 0.538071161336  Min(alpha.water) = -2.81822310836e-09  Max(alpha.water) = 1.00000319272
MULES: Correcting alpha.water
MULES: Correcting alpha.water
MULES: Correcting alpha.water
Phase-1 volume fraction = 0.538072791683  Min(alpha.water) = -1.27086831888e-08  Max(alpha.water) = 1.00000379209
DILUPBiCGStab:  Solving for p_rgh, Initial residual = 0.000368660604509, Final residual = 3.46839668976e-06, No Iterations 6
time step continuity errors : sum local = 0.000195411075038, global = -0.000192186293139, cumulative = -0.00764392814685
DILUPBiCGStab:  Solving for p_rgh, Initial residual = 5.18810604134e-06, Final residual = 3.73096449897e-10, No Iterations 34
time step continuity errors : sum local = 2.04037120929e-08, global = 1.19354177317e-09, cumulative = -0.00764392695331
smoothSolver:  Solving for epsilon, Initial residual = 0.00134832785275, Final residual = 1.25814865181e-09, No Iterations 5
smoothSolver:  Solving for k, Initial residual = 0.00112545361067, Final residual = 4.77610025745e-09, No Iterations 5
ExecutionTime = 588.7 s  ClockTime = 607 s

End

