/*---------------------------------------------------------------------------*\
| =========                 |                                                 |
| \\      /  F ield         | OpenFOAM: The Open Source CFD Toolbox           |
|  \\    /   O peration     | Version:  v1712                                 |
|   \\  /    A nd           | Web:      www.OpenFOAM.com                      |
|    \\/     M anipulation  |                                                 |
\*---------------------------------------------------------------------------*/
Build  : v1712
Arch   : "LSB;label=32;scalar=64"
Exec   : chtMultiRegionFoam -parallel
Date   : Jan 05 2018
Time   : 17:46:37
Host   : "inabower-PC"
PID    : 11173
I/O    : uncollated
Case   : /media/inabower/3C9455F89455B55C/inabower/tutorials-v1712/heatTransfer/chtMultiRegionFoam/externalSolarLoad
nProcs : 4
Hosts  :
(
    (inabower-PC 4)
)
Pstream initialized with:
    floatTransfer      : 0
    nProcsSimpleSum    : 0
    commsType          : nonBlocking
    polling iterations : 0
trapFpe: Floating point exception trapping enabled (FOAM_SIGFPE).
fileModificationChecking : Monitoring run-time modified files using timeStampMaster (fileModificationSkew 10)
allowSystemOperations : Allowing user-supplied system call operations

// * * * * * * * * * * * * * * * * * * * * * * * * * * * * * * * * * * * * * //
Create time

Create fluid mesh for region air for time = 0

Create solid mesh for region solid for time = 0

Create solid mesh for region floor for time = 0

*** Reading fluid mesh thermophysical properties for region air

    Adding to thermoFluid

Selecting thermodynamics package 
{
    type            heRhoThermo;
    mixture         pureMixture;
    transport       const;
    thermo          hConst;
    equationOfState perfectGas;
    specie          specie;
    energy          sensibleEnthalpy;
}

    Adding to rhoFluid

    Adding to UFluid

    Adding to phiFluid

    Adding to gFluid

    Adding to hRefFluid

    Adding to ghFluid

    Adding to ghfFluid

    Adding to turbulence

Selecting turbulence model type RAS
Selecting RAS turbulence model kEpsilon
RAS
{
    RASModel        kEpsilon;
    turbulence      on;
    printCoeffs     on;
    Cmu             0.09;
    C1              1.44;
    C2              1.92;
    C3              0;
    sigmak          1;
    sigmaEps        1.3;
}

Selecting radiationModel solarLoad
Selecting absorptionEmissionModel none
Selecting scatterModel none
Selecting sootModel none
Selecting transmissivityModel none
    Adding to KFluid

    Adding to dpdtFluid

    Adding MRF

No MRF models present

    Adding fvOptions

No finite volume options present

*** Reading solid mesh thermophysical properties for region solid

    Adding to thermos

Selecting thermodynamics package 
{
    type            heSolidThermo;
    mixture         pureMixture;
    transport       constIso;
    thermo          hConst;
    equationOfState rhoConst;
    specie          specie;
    energy          sensibleEnthalpy;
}

    Adding to radiations

Selecting radiationModel opaqueSolid
Selecting absorptionEmissionModel multiBandSolidAbsorptionEmission
Selecting scatterModel none
Selecting sootModel none
Selecting transmissivityModel multiBandSolidTransmissivity
    Adding fvOptions

No finite volume options present

*** Reading solid mesh thermophysical properties for region floor

    Adding to thermos

Selecting thermodynamics package 
{
    type            heSolidThermo;
    mixture         pureMixture;
    transport       constIso;
    thermo          hConst;
    equationOfState rhoConst;
    specie          specie;
    energy          sensibleEnthalpy;
}

    Adding to radiations

Selecting radiationModel opaqueSolid
Selecting absorptionEmissionModel multiBandSolidAbsorptionEmission
Selecting scatterModel none
Selecting sootModel none
Selecting transmissivityModel multiBandSolidTransmissivity
    Adding fvOptions

No finite volume options present

Region: air Courant Number mean: 0.07241773 max: 0.07500019
Region: solid Diffusion Number mean: 3.558151e-05 max: 0.0001440007
Region: floor Diffusion Number mean: 1.25e-05 max: 5.000025e-05
deltaT = 1
Region: air Courant Number mean: 0.07241773 max: 0.07500019
Region: solid Diffusion Number mean: 3.558151e-05 max: 0.0001440007
Region: floor Diffusion Number mean: 1.25e-05 max: 5.000025e-05
deltaT = 1.20048
Time = 1.20048


Solving for fluid region air
diagonal:  Solving for rho, Initial residual = 0, Final residual = 0, No Iterations 0
DILUPBiCGStab:  Solving for h, Initial residual = 0.5172387, Final residual = 9.681316e-07, No Iterations 2
Number of 'potential' direct hits : 972
Total number of hit faces : 930
Min/max T:300 300
DICPCG:  Solving for p_rgh, Initial residual = 0.7257972, Final residual = 0.03203281, No Iterations 9
diagonal:  Solving for rho, Initial residual = 0, Final residual = 0, No Iterations 0
time step continuity errors (air): sum local = 5.029622, global = -0.8131912, cumulative = -0.8131912
DICPCG:  Solving for p_rgh, Initial residual = 0.1582746, Final residual = 8.095331e-08, No Iterations 47
diagonal:  Solving for rho, Initial residual = 0, Final residual = 0, No Iterations 0
time step continuity errors (air): sum local = 0.0006846025, global = -0.0006825542, cumulative = -0.8138738
DILUPBiCGStab:  Solving for epsilon, Initial residual = 0.8266567, Final residual = 8.733316e-08, No Iterations 3
DILUPBiCGStab:  Solving for k, Initial residual = 1, Final residual = 7.495581e-08, No Iterations 3

Solving for solid region solid
DICPCG:  Solving for h, Initial residual = 0.9999948, Final residual = 3.652857e-10, No Iterations 2
Min/max T:300 300.0002

Solving for solid region floor
DICPCG:  Solving for h, Initial residual = 1, Final residual = 1.013823e-11, No Iterations 2
Min/max T:300 303.8682
ExecutionTime = 0.26 s  ClockTime = 1 s

Region: air Courant Number mean: 0.1838724 max: 125.4254
Region: solid Diffusion Number mean: 4.271489e-05 max: 0.00017287
Region: floor Diffusion Number mean: 1.5006e-05 max: 6.002431e-05
deltaT = 0.1435676
Time = 1.34405


Solving for fluid region air
diagonal:  Solving for rho, Initial residual = 0, Final residual = 0, No Iterations 0
DILUPBiCGStab:  Solving for h, Initial residual = 1, Final residual = 5.722732e-08, No Iterations 3
Min/max T:296.8202 300.0025
DICPCG:  Solving for p_rgh, Initial residual = 0.08408429, Final residual = 0.003510295, No Iterations 16
diagonal:  Solving for rho, Initial residual = 0, Final residual = 0, No Iterations 0
time step continuity errors (air): sum local = 0.0004106663, global = 0.0001767044, cumulative = -0.8136971
DICPCG:  Solving for p_rgh, Initial residual = 0.02379574, Final residual = 9.291051e-08, No Iterations 43
diagonal:  Solving for rho, Initial residual = 0, Final residual = 0, No Iterations 0
time step continuity errors (air): sum local = 4.505995e-06, global = 2.88251e-06, cumulative = -0.8136942
DILUPBiCGStab:  Solving for epsilon, Initial residual = 0.1883342, Final residual = 1.568182e-07, No Iterations 3
DILUPBiCGStab:  Solving for k, Initial residual = 0.1833371, Final residual = 3.058908e-07, No Iterations 3

Solving for solid region solid
DICPCG:  Solving for h, Initial residual = 0.1025634, Final residual = 3.01068e-07, No Iterations 1
Min/max T:300 300.0003

Solving for solid region floor
DICPCG:  Solving for h, Initial residual = 0.9999826, Final residual = 4.997093e-07, No Iterations 1
Min/max T:300 303.8682
ExecutionTime = 0.32 s  ClockTime = 1 s

Region: air Courant Number mean: 0.0176024 max: 1.01499
Region: solid Diffusion Number mean: 5.10835e-06 max: 2.067383e-05
Region: floor Diffusion Number mean: 1.794594e-06 max: 7.178414e-06
deltaT = 0.1722712
Time = 1.51632


Solving for fluid region air
diagonal:  Solving for rho, Initial residual = 0, Final residual = 0, No Iterations 0
DILUPBiCGStab:  Solving for h, Initial residual = 0.6927815, Final residual = 3.27321e-07, No Iterations 3
Min/max T:296.8202 300.0559
DICPCG:  Solving for p_rgh, Initial residual = 0.4050934, Final residual = 0.02008116, No Iterations 11
diagonal:  Solving for rho, Initial residual = 0, Final residual = 0, No Iterations 0
time step continuity errors (air): sum local = 0.0005262361, global = 0.0002587012, cumulative = -0.8134355
DICPCG:  Solving for p_rgh, Initial residual = 0.0560933, Final residual = 7.794467e-08, No Iterations 47
diagonal:  Solving for rho, Initial residual = 0, Final residual = 0, No Iterations 0
time step continuity errors (air): sum local = 3.92616e-06, global = 3.880454e-06, cumulative = -0.8134316
DILUPBiCGStab:  Solving for epsilon, Initial residual = 0.08758456, Final residual = 2.682747e-07, No Iterations 3
DILUPBiCGStab:  Solving for k, Initial residual = 0.1086229, Final residual = 2.73376e-07, No Iterations 3

Solving for solid region solid
DICPCG:  Solving for h, Initial residual = 0.1210612, Final residual = 4.264133e-07, No Iterations 1
Min/max T:300 300.0003

Solving for solid region floor
DICPCG:  Solving for h, Initial residual = 0.9999835, Final residual = 5.996163e-07, No Iterations 1
Min/max T:300 303.8683
ExecutionTime = 0.39 s  ClockTime = 1 s

Region: air Courant Number mean: 0.02130339 max: 0.6209158
Region: solid Diffusion Number mean: 6.129667e-06 max: 2.480717e-05
Region: floor Diffusion Number mean: 2.153389e-06 max: 8.613601e-06
deltaT = 0.2067254
Time = 1.72304


Solving for fluid region air
diagonal:  Solving for rho, Initial residual = 0, Final residual = 0, No Iterations 0
DILUPBiCGStab:  Solving for h, Initial residual = 0.162933, Final residual = 4.204159e-07, No Iterations 3
Min/max T:299.1517 300.0705
DICPCG:  Solving for p_rgh, Initial residual = 0.2237906, Final residual = 0.008474877, No Iterations 10
diagonal:  Solving for rho, Initial residual = 0, Final residual = 0, No Iterations 0
time step continuity errors (air): sum local = 0.0001484101, global = -1.263383e-06, cumulative = -0.8134329
DICPCG:  Solving for p_rgh, Initial residual = 0.03870393, Final residual = 9.912518e-08, No Iterations 46
diagonal:  Solving for rho, Initial residual = 0, Final residual = 0, No Iterations 0
time step continuity errors (air): sum local = 6.151105e-07, global = -3.197941e-07, cumulative = -0.8134332
DILUPBiCGStab:  Solving for epsilon, Initial residual = 0.1032656, Final residual = 3.717176e-07, No Iterations 3
DILUPBiCGStab:  Solving for k, Initial residual = 0.1243772, Final residual = 7.937202e-07, No Iterations 3

Solving for solid region solid
DICPCG:  Solving for h, Initial residual = 0.1406078, Final residual = 5.943079e-07, No Iterations 1
Min/max T:300 300.0003

Solving for solid region floor
DICPCG:  Solving for h, Initial residual = 0.999984, Final residual = 7.195384e-07, No Iterations 1
Min/max T:300 303.8683
ExecutionTime = 0.46 s  ClockTime = 1 s

Region: air Courant Number mean: 0.02595149 max: 0.461674
Region: solid Diffusion Number mean: 7.355601e-06 max: 2.976861e-05
Region: floor Diffusion Number mean: 2.584067e-06 max: 1.033632e-05
deltaT = 0.2480808
Time = 1.97113


Solving for fluid region air
diagonal:  Solving for rho, Initial residual = 0, Final residual = 0, No Iterations 0
DILUPBiCGStab:  Solving for h, Initial residual = 0.04935024, Final residual = 2.901936e-07, No Iterations 3
Min/max T:299.4074 300.0678
DICPCG:  Solving for p_rgh, Initial residual = 0.337968, Final residual = 0.01073141, No Iterations 3
diagonal:  Solving for rho, Initial residual = 0, Final residual = 0, No Iterations 0
time step continuity errors (air): sum local = 6.056832e-05, global = -1.03555e-05, cumulative = -0.8134436
DICPCG:  Solving for p_rgh, Initial residual = 0.02738108, Final residual = 6.942261e-08, No Iterations 45
diagonal:  Solving for rho, Initial residual = 0, Final residual = 0, No Iterations 0
time step continuity errors (air): sum local = 1.457205e-07, global = 7.035901e-08, cumulative = -0.8134435
DILUPBiCGStab:  Solving for epsilon, Initial residual = 0.1053206, Final residual = 2.349107e-07, No Iterations 3
DILUPBiCGStab:  Solving for k, Initial residual = 0.1286137, Final residual = 5.803508e-07, No Iterations 3

Solving for solid region solid
DICPCG:  Solving for h, Initial residual = 0.1604631, Final residual = 8.139055e-07, No Iterations 1
Min/max T:300 300.0004

Solving for solid region floor
DICPCG:  Solving for h, Initial residual = 0.9999841, Final residual = 8.634799e-07, No Iterations 1
Min/max T:300 303.8683
ExecutionTime = 0.52 s  ClockTime = 1 s

Region: air Courant Number mean: 0.032064 max: 0.3727247
Region: solid Diffusion Number mean: 8.827087e-06 max: 3.572381e-05
Region: floor Diffusion Number mean: 3.101009e-06 max: 1.24041e-05
deltaT = 0.2976525
Time = 2.26878


Solving for fluid region air
diagonal:  Solving for rho, Initial residual = 0, Final residual = 0, No Iterations 0
DILUPBiCGStab:  Solving for h, Initial residual = 0.01068342, Final residual = 1.172399e-07, No Iterations 3
Min/max T:299.6526 300.0681
DICPCG:  Solving for p_rgh, Initial residual = 0.2746967, Final residual = 0.01160637, No Iterations 3
diagonal:  Solving for rho, Initial residual = 0, Final residual = 0, No Iterations 0
time step continuity errors (air): sum local = 4.996656e-05, global = 2.199794e-05, cumulative = -0.8134215
DICPCG:  Solving for p_rgh, Initial residual = 0.02783756, Final residual = 7.110224e-08, No Iterations 45
diagonal:  Solving for rho, Initial residual = 0, Final residual = 0, No Iterations 0
time step continuity errors (air): sum local = 3.157868e-07, global = 3.085901e-07, cumulative = -0.8134212
DILUPBiCGStab:  Solving for epsilon, Initial residual = 0.11805, Final residual = 2.118478e-07, No Iterations 3
DILUPBiCGStab:  Solving for k, Initial residual = 0.1424442, Final residual = 6.390149e-07, No Iterations 3

Solving for solid region solid
DICPCG:  Solving for h, Initial residual = 0.1797967, Final residual = 4.039543e-12, No Iterations 2
Min/max T:300 300.0004

Solving for solid region floor
DICPCG:  Solving for h, Initial residual = 0.9999838, Final residual = 6.233285e-13, No Iterations 2
Min/max T:300 303.8683
ExecutionTime = 0.59 s  ClockTime = 1 s

Region: air Courant Number mean: 0.04014372 max: 0.3241606
Region: solid Diffusion Number mean: 1.059092e-05 max: 4.286218e-05
Region: floor Diffusion Number mean: 3.720656e-06 max: 1.48827e-05
deltaT = 0.3572256
Time = 2.626


Solving for fluid region air
diagonal:  Solving for rho, Initial residual = 0, Final residual = 0, No Iterations 0
DILUPBiCGStab:  Solving for h, Initial residual = 0.01511296, Final residual = 8.53041e-07, No Iterations 2
Min/max T:299.7747 300.0684
DICPCG:  Solving for p_rgh, Initial residual = 0.1904221, Final residual = 0.006412938, No Iterations 3
diagonal:  Solving for rho, Initial residual = 0, Final residual = 0, No Iterations 0
time step continuity errors (air): sum local = 2.843642e-05, global = -1.448293e-05, cumulative = -0.8134357
DICPCG:  Solving for p_rgh, Initial residual = 0.02030228, Final residual = 8.520337e-08, No Iterations 44
diagonal:  Solving for rho, Initial residual = 0, Final residual = 0, No Iterations 0
time step continuity errors (air): sum local = 8.762224e-08, global = -8.723324e-08, cumulative = -0.8134357
DILUPBiCGStab:  Solving for epsilon, Initial residual = 0.1353131, Final residual = 2.187734e-07, No Iterations 3
DILUPBiCGStab:  Solving for k, Initial residual = 0.1604888, Final residual = 6.029554e-07, No Iterations 3

Solving for solid region solid
DICPCG:  Solving for h, Initial residual = 0.1979638, Final residual = 6.406082e-12, No Iterations 2
Min/max T:300 300.0005

Solving for solid region floor
DICPCG:  Solving for h, Initial residual = 0.9999833, Final residual = 8.978009e-13, No Iterations 2
Min/max T:300 303.8683
ExecutionTime = 0.65 s  ClockTime = 1 s

Region: air Courant Number mean: 0.05080512 max: 0.2953394
Region: solid Diffusion Number mean: 1.271063e-05 max: 5.144075e-05
Region: floor Diffusion Number mean: 4.46532e-06 max: 1.786137e-05
deltaT = 0.4286094
Time = 3.05461


Solving for fluid region air
diagonal:  Solving for rho, Initial residual = 0, Final residual = 0, No Iterations 0
DILUPBiCGStab:  Solving for h, Initial residual = 0.01753689, Final residual = 5.238964e-07, No Iterations 2
Min/max T:299.8921 300.0687
DICPCG:  Solving for p_rgh, Initial residual = 0.1445098, Final residual = 0.005333107, No Iterations 3
diagonal:  Solving for rho, Initial residual = 0, Final residual = 0, No Iterations 0
time step continuity errors (air): sum local = 2.296366e-05, global = -6.113656e-06, cumulative = -0.8134419
DICPCG:  Solving for p_rgh, Initial residual = 0.02203898, Final residual = 9.001058e-08, No Iterations 44
diagonal:  Solving for rho, Initial residual = 0, Final residual = 0, No Iterations 0
time step continuity errors (air): sum local = 2.17394e-08, global = -7.406494e-09, cumulative = -0.8134419
DILUPBiCGStab:  Solving for epsilon, Initial residual = 0.154396, Final residual = 2.99334e-07, No Iterations 3
DILUPBiCGStab:  Solving for k, Initial residual = 0.1795669, Final residual = 7.800446e-07, No Iterations 3

Solving for solid region solid
DICPCG:  Solving for h, Initial residual = 0.2143092, Final residual = 9.983217e-12, No Iterations 2
Min/max T:300 300.0006

Solving for solid region floor
DICPCG:  Solving for h, Initial residual = 0.9999823, Final residual = 1.292451e-12, No Iterations 2
Min/max T:300 303.8684
ExecutionTime = 0.72 s  ClockTime = 1 s

Region: air Courant Number mean: 0.0649136 max: 0.3114429
Region: solid Diffusion Number mean: 1.525057e-05 max: 6.172006e-05
Region: floor Diffusion Number mean: 5.357616e-06 max: 2.143058e-05
deltaT = 0.5144197
Time = 3.56903


Solving for fluid region air
diagonal:  Solving for rho, Initial residual = 0, Final residual = 0, No Iterations 0
DILUPBiCGStab:  Solving for h, Initial residual = 0.02495668, Final residual = 1.155583e-07, No Iterations 3
Min/max T:299.9199 300.0691
DICPCG:  Solving for p_rgh, Initial residual = 0.09810101, Final residual = 0.004696431, No Iterations 3
diagonal:  Solving for rho, Initial residual = 0, Final residual = 0, No Iterations 0
time step continuity errors (air): sum local = 2.306951e-05, global = -7.706681e-06, cumulative = -0.8134496
DICPCG:  Solving for p_rgh, Initial residual = 0.02304582, Final residual = 9.298178e-08, No Iterations 44
diagonal:  Solving for rho, Initial residual = 0, Final residual = 0, No Iterations 0
time step continuity errors (air): sum local = 2.066068e-08, global = -8.759235e-09, cumulative = -0.8134496
DILUPBiCGStab:  Solving for epsilon, Initial residual = 0.177599, Final residual = 4.056157e-07, No Iterations 3
DILUPBiCGStab:  Solving for k, Initial residual = 0.2005023, Final residual = 8.886494e-08, No Iterations 3

Solving for solid region solid
DICPCG:  Solving for h, Initial residual = 0.2286773, Final residual = 1.534427e-11, No Iterations 2
Min/max T:300 300.0007

Solving for solid region floor
DICPCG:  Solving for h, Initial residual = 0.9999808, Final residual = 1.861749e-12, No Iterations 2
Min/max T:300 303.8684
ExecutionTime = 0.78 s  ClockTime = 1 s

Region: air Courant Number mean: 0.0837458 max: 0.338343
Region: solid Diffusion Number mean: 1.830383e-05 max: 7.407681e-05
Region: floor Diffusion Number mean: 6.430245e-06 max: 2.572111e-05
deltaT = 0.6173674
Time = 4.1864


Solving for fluid region air
diagonal:  Solving for rho, Initial residual = 0, Final residual = 0, No Iterations 0
DILUPBiCGStab:  Solving for h, Initial residual = 0.03493096, Final residual = 2.338904e-07, No Iterations 3
Min/max T:299.9397 300.0698
DICPCG:  Solving for p_rgh, Initial residual = 0.06590921, Final residual = 0.00294925, No Iterations 4
diagonal:  Solving for rho, Initial residual = 0, Final residual = 0, No Iterations 0
time step continuity errors (air): sum local = 1.772694e-05, global = -7.355869e-06, cumulative = -0.8134569
DICPCG:  Solving for p_rgh, Initial residual = 0.02423652, Final residual = 8.965226e-08, No Iterations 44
diagonal:  Solving for rho, Initial residual = 0, Final residual = 0, No Iterations 0
time step continuity errors (air): sum local = 1.982315e-08, global = -8.893078e-09, cumulative = -0.8134569
DILUPBiCGStab:  Solving for epsilon, Initial residual = 0.2021453, Final residual = 5.078841e-07, No Iterations 3
DILUPBiCGStab:  Solving for k, Initial residual = 0.2210589, Final residual = 1.652543e-07, No Iterations 3

Solving for solid region solid
DICPCG:  Solving for h, Initial residual = 0.2409082, Final residual = 2.328121e-11, No Iterations 2
Min/max T:300 300.0008

Solving for solid region floor
DICPCG:  Solving for h, Initial residual = 0.9999789, Final residual = 2.681437e-12, No Iterations 2
Min/max T:300 303.8684
ExecutionTime = 0.86 s  ClockTime = 1 s

Region: air Courant Number mean: 0.10895 max: 0.3724202
Region: solid Diffusion Number mean: 2.196686e-05 max: 8.890135e-05
Region: floor Diffusion Number mean: 7.717091e-06 max: 3.086852e-05
deltaT = 0.7409327
Time = 4.92733


Solving for fluid region air
diagonal:  Solving for rho, Initial residual = 0, Final residual = 0, No Iterations 0
DILUPBiCGStab:  Solving for h, Initial residual = 0.04912906, Final residual = 4.141919e-07, No Iterations 3
Min/max T:299.9554 300.0707
DICPCG:  Solving for p_rgh, Initial residual = 0.04608145, Final residual = 0.001998012, No Iterations 7
diagonal:  Solving for rho, Initial residual = 0, Final residual = 0, No Iterations 0
time step continuity errors (air): sum local = 1.521194e-05, global = -4.665617e-06, cumulative = -0.8134616
DICPCG:  Solving for p_rgh, Initial residual = 0.02625582, Final residual = 8.748708e-08, No Iterations 44
diagonal:  Solving for rho, Initial residual = 0, Final residual = 0, No Iterations 0
time step continuity errors (air): sum local = 1.990987e-08, global = -1.598359e-09, cumulative = -0.8134616
DILUPBiCGStab:  Solving for epsilon, Initial residual = 0.2257387, Final residual = 7.126404e-07, No Iterations 3
DILUPBiCGStab:  Solving for k, Initial residual = 0.2394613, Final residual = 2.789254e-07, No Iterations 3

Solving for solid region solid
DICPCG:  Solving for h, Initial residual = 0.251118, Final residual = 3.495234e-11, No Iterations 2
Min/max T:300 300.0009

Solving for solid region floor
DICPCG:  Solving for h, Initial residual = 0.9999764, Final residual = 3.862163e-12, No Iterations 2
Min/max T:300 303.8685
ExecutionTime = 0.92 s  ClockTime = 1 s

Region: air Courant Number mean: 0.142769 max: 0.4156354
Region: solid Diffusion Number mean: 2.63635e-05 max: 0.0001066948
Region: floor Diffusion Number mean: 9.261657e-06 max: 3.704682e-05
deltaT = 0.8892517
Time = 5.81658


Solving for fluid region air
diagonal:  Solving for rho, Initial residual = 0, Final residual = 0, No Iterations 0
DILUPBiCGStab:  Solving for h, Initial residual = 0.06916543, Final residual = 4.37399e-07, No Iterations 3
Min/max T:299.9668 300.072
DICPCG:  Solving for p_rgh, Initial residual = 0.03367422, Final residual = 0.001307797, No Iterations 11
diagonal:  Solving for rho, Initial residual = 0, Final residual = 0, No Iterations 0
time step continuity errors (air): sum local = 1.286165e-05, global = -1.958211e-06, cumulative = -0.8134636
DICPCG:  Solving for p_rgh, Initial residual = 0.02858982, Final residual = 7.17846e-08, No Iterations 45
diagonal:  Solving for rho, Initial residual = 0, Final residual = 0, No Iterations 0
time step continuity errors (air): sum local = 2.755797e-08, global = 6.980317e-09, cumulative = -0.8134636
DILUPBiCGStab:  Solving for epsilon, Initial residual = 0.2461564, Final residual = 8.163439e-08, No Iterations 3
DILUPBiCGStab:  Solving for k, Initial residual = 0.2543884, Final residual = 4.426249e-07, No Iterations 3

Solving for solid region solid
DICPCG:  Solving for h, Initial residual = 0.2595147, Final residual = 5.202607e-11, No Iterations 2
Min/max T:300 300.0011

Solving for solid region floor
DICPCG:  Solving for h, Initial residual = 0.9999732, Final residual = 5.563061e-12, No Iterations 2
Min/max T:300 303.8685
ExecutionTime = 0.99 s  ClockTime = 1 s

Region: air Courant Number mean: 0.1881838 max: 0.4688174
Region: solid Diffusion Number mean: 3.164091e-05 max: 0.0001280529
Region: floor Diffusion Number mean: 1.111564e-05 max: 4.446281e-05
deltaT = 1.06672
Time = 6.8833


Solving for fluid region air
diagonal:  Solving for rho, Initial residual = 0, Final residual = 0, No Iterations 0
DILUPBiCGStab:  Solving for h, Initial residual = 0.09677273, Final residual = 4.322531e-07, No Iterations 3
Min/max T:299.9761 300.0737
DICPCG:  Solving for p_rgh, Initial residual = 0.02940124, Final residual = 0.001150946, No Iterations 12
diagonal:  Solving for rho, Initial residual = 0, Final residual = 0, No Iterations 0
time step continuity errors (air): sum local = 1.467445e-05, global = -1.947041e-06, cumulative = -0.8134655
DICPCG:  Solving for p_rgh, Initial residual = 0.03140282, Final residual = 9.491214e-08, No Iterations 45
diagonal:  Solving for rho, Initial residual = 0, Final residual = 0, No Iterations 0
time step continuity errors (air): sum local = 3.507797e-08, global = 7.409145e-09, cumulative = -0.8134655
DILUPBiCGStab:  Solving for epsilon, Initial residual = 0.2608812, Final residual = 1.153383e-07, No Iterations 3
DILUPBiCGStab:  Solving for k, Initial residual = 0.2638857, Final residual = 5.635254e-07, No Iterations 3

Solving for solid region solid
DICPCG:  Solving for h, Initial residual = 0.2662122, Final residual = 7.678953e-11, No Iterations 2
Min/max T:300 300.0013

Solving for solid region floor
DICPCG:  Solving for h, Initial residual = 0.9999692, Final residual = 8.004887e-12, No Iterations 2
Min/max T:300 303.8686
ExecutionTime = 1.06 s  ClockTime = 1 s

Region: air Courant Number mean: 0.2489612 max: 0.5409314
Region: solid Diffusion Number mean: 3.795552e-05 max: 0.0001536085
Region: floor Diffusion Number mean: 1.3334e-05 max: 5.333629e-05
deltaT = 1.27979
Time = 8.16309


Solving for fluid region air
diagonal:  Solving for rho, Initial residual = 0, Final residual = 0, No Iterations 0
DILUPBiCGStab:  Solving for h, Initial residual = 0.1331922, Final residual = 3.283386e-07, No Iterations 3
Min/max T:299.9843 300.0762
DICPCG:  Solving for p_rgh, Initial residual = 0.03004546, Final residual = 0.001324422, No Iterations 12
diagonal:  Solving for rho, Initial residual = 0, Final residual = 0, No Iterations 0
time step continuity errors (air): sum local = 2.168301e-05, global = -2.238951e-06, cumulative = -0.8134677
DICPCG:  Solving for p_rgh, Initial residual = 0.03408611, Final residual = 7.660866e-08, No Iterations 46
diagonal:  Solving for rho, Initial residual = 0, Final residual = 0, No Iterations 0
time step continuity errors (air): sum local = 4.241134e-08, global = 5.878837e-09, cumulative = -0.8134677
DILUPBiCGStab:  Solving for epsilon, Initial residual = 0.2670635, Final residual = 2.662859e-08, No Iterations 4
DILUPBiCGStab:  Solving for k, Initial residual = 0.2670209, Final residual = 5.830995e-07, No Iterations 3

Solving for solid region solid
DICPCG:  Solving for h, Initial residual = 0.2716432, Final residual = 1.127729e-10, No Iterations 2
Min/max T:300 300.0016

Solving for solid region floor
DICPCG:  Solving for h, Initial residual = 0.9999644, Final residual = 1.152175e-11, No Iterations 2
Min/max T:300 303.8687
ExecutionTime = 1.12 s  ClockTime = 1 s

Region: air Courant Number mean: 0.330302 max: 0.6285571
Region: solid Diffusion Number mean: 4.553684e-05 max: 0.0001842906
Region: floor Diffusion Number mean: 1.599737e-05 max: 6.39898e-05
deltaT = 1.535351
Time = 9.69845


Solving for fluid region air
diagonal:  Solving for rho, Initial residual = 0, Final residual = 0, No Iterations 0
DILUPBiCGStab:  Solving for h, Initial residual = 0.1732992, Final residual = 4.639025e-08, No Iterations 4
Min/max T:299.9915 300.0799
DICPCG:  Solving for p_rgh, Initial residual = 0.03528917, Final residual = 0.001451332, No Iterations 12
diagonal:  Solving for rho, Initial residual = 0, Final residual = 0, No Iterations 0
time step continuity errors (air): sum local = 2.996106e-05, global = -2.722559e-06, cumulative = -0.8134705
DICPCG:  Solving for p_rgh, Initial residual = 0.03653249, Final residual = 9.284421e-08, No Iterations 46
diagonal:  Solving for rho, Initial residual = 0, Final residual = 0, No Iterations 0
time step continuity errors (air): sum local = 4.974589e-08, global = 2.779217e-09, cumulative = -0.8134705
DILUPBiCGStab:  Solving for epsilon, Initial residual = 0.2601856, Final residual = 8.590129e-07, No Iterations 3
DILUPBiCGStab:  Solving for k, Initial residual = 0.2617542, Final residual = 2.21949e-07, No Iterations 4

Solving for solid region solid
DICPCG:  Solving for h, Initial residual = 0.2759865, Final residual = 1.648841e-10, No Iterations 2
Min/max T:300 300.0019

Solving for solid region floor
DICPCG:  Solving for h, Initial residual = 0.9999585, Final residual = 1.658219e-11, No Iterations 2
Min/max T:300 303.8688
ExecutionTime = 1.19 s  ClockTime = 1 s

Region: air Courant Number mean: 0.4387593 max: 0.7436907
Region: solid Diffusion Number mean: 5.463011e-05 max: 0.0002210917
Region: floor Diffusion Number mean: 1.919189e-05 max: 7.676795e-05
deltaT = 1.840709
Time = 11.5392


Solving for fluid region air
diagonal:  Solving for rho, Initial residual = 0, Final residual = 0, No Iterations 0
DILUPBiCGStab:  Solving for h, Initial residual = 0.2111839, Final residual = 1.849859e-07, No Iterations 4
Min/max T:299.995 300.0849
DICPCG:  Solving for p_rgh, Initial residual = 0.04269667, Final residual = 0.001672372, No Iterations 12
diagonal:  Solving for rho, Initial residual = 0, Final residual = 0, No Iterations 0
time step continuity errors (air): sum local = 4.261686e-05, global = -4.175248e-06, cumulative = -0.8134746
DICPCG:  Solving for p_rgh, Initial residual = 0.03914059, Final residual = 7.307105e-08, No Iterations 47
diagonal:  Solving for rho, Initial residual = 0, Final residual = 0, No Iterations 0
time step continuity errors (air): sum local = 5.685206e-08, global = -1.165355e-09, cumulative = -0.8134746
DILUPBiCGStab:  Solving for epsilon, Initial residual = 0.2400755, Final residual = 7.484582e-08, No Iterations 4
DILUPBiCGStab:  Solving for k, Initial residual = 0.2472844, Final residual = 2.675083e-07, No Iterations 4

Solving for solid region solid
DICPCG:  Solving for h, Initial residual = 0.2792804, Final residual = 2.397855e-10, No Iterations 2
Min/max T:300 300.0022

Solving for solid region floor
DICPCG:  Solving for h, Initial residual = 0.9999514, Final residual = 2.383301e-11, No Iterations 2
Min/max T:300 303.8689
ExecutionTime = 1.26 s  ClockTime = 2 s

Region: air Courant Number mean: 0.582213 max: 0.9556629
Region: solid Diffusion Number mean: 6.54952e-05 max: 0.0002650635
Region: floor Diffusion Number mean: 2.300886e-05 max: 9.203592e-05
deltaT = 2.206386
Time = 13.7455


Solving for fluid region air
diagonal:  Solving for rho, Initial residual = 0, Final residual = 0, No Iterations 0
DILUPBiCGStab:  Solving for h, Initial residual = 0.2384755, Final residual = 5.684651e-07, No Iterations 4
Min/max T:299.9954 300.0919
DICPCG:  Solving for p_rgh, Initial residual = 0.05293053, Final residual = 0.001929173, No Iterations 12
diagonal:  Solving for rho, Initial residual = 0, Final residual = 0, No Iterations 0
time step continuity errors (air): sum local = 5.922142e-05, global = -6.254698e-06, cumulative = -0.8134809
DICPCG:  Solving for p_rgh, Initial residual = 0.04245173, Final residual = 8.887696e-08, No Iterations 47
diagonal:  Solving for rho, Initial residual = 0, Final residual = 0, No Iterations 0
time step continuity errors (air): sum local = 6.316092e-08, global = -5.645597e-09, cumulative = -0.8134809
DILUPBiCGStab:  Solving for epsilon, Initial residual = 0.2096707, Final residual = 1.506613e-07, No Iterations 4
DILUPBiCGStab:  Solving for k, Initial residual = 0.2264532, Final residual = 6.588586e-07, No Iterations 4

Solving for solid region solid
DICPCG:  Solving for h, Initial residual = 0.2818536, Final residual = 3.476347e-10, No Iterations 2
Min/max T:300 300.0026

Solving for solid region floor
DICPCG:  Solving for h, Initial residual = 0.9999428, Final residual = 3.424126e-11, No Iterations 2
Min/max T:300 303.8691
ExecutionTime = 1.32 s  ClockTime = 2 s

Region: air Courant Number mean: 0.7709522 max: 1.243924
Region: solid Diffusion Number mean: 7.850653e-05 max: 0.0003177211
Region: floor Diffusion Number mean: 2.757982e-05 max: 0.0001103198
deltaT = 2.644114
Time = 16.3897


Solving for fluid region air
diagonal:  Solving for rho, Initial residual = 0, Final residual = 0, No Iterations 0
DILUPBiCGStab:  Solving for h, Initial residual = 0.2550888, Final residual = 3.664764e-07, No Iterations 4
Min/max T:299.9964 300.1014
DICPCG:  Solving for p_rgh, Initial residual = 0.06644763, Final residual = 0.002287368, No Iterations 12
diagonal:  Solving for rho, Initial residual = 0, Final residual = 0, No Iterations 0
time step continuity errors (air): sum local = 8.229631e-05, global = -7.79564e-06, cumulative = -0.8134887
DICPCG:  Solving for p_rgh, Initial residual = 0.04671032, Final residual = 6.881715e-08, No Iterations 48
diagonal:  Solving for rho, Initial residual = 0, Final residual = 0, No Iterations 0
time step continuity errors (air): sum local = 6.827898e-08, global = -1.01247e-08, cumulative = -0.8134887
DILUPBiCGStab:  Solving for epsilon, Initial residual = 0.1748627, Final residual = 2.111323e-07, No Iterations 4
DILUPBiCGStab:  Solving for k, Initial residual = 0.2004249, Final residual = 3.194096e-07, No Iterations 4

Solving for solid region solid
DICPCG:  Solving for h, Initial residual = 0.283841, Final residual = 5.026682e-10, No Iterations 2
Min/max T:300 300.0031

Solving for solid region floor
DICPCG:  Solving for h, Initial residual = 0.9999324, Final residual = 4.917238e-11, No Iterations 2
Min/max T:300 303.8692
ExecutionTime = 1.39 s  ClockTime = 2 s

Region: air Courant Number mean: 1.01736 max: 1.606073
Region: solid Diffusion Number mean: 9.408155e-05 max: 0.0003807543
Region: floor Diffusion Number mean: 3.305142e-05 max: 0.0001322064
deltaT = 3.172937
Time = 19.5626


Solving for fluid region air
diagonal:  Solving for rho, Initial residual = 0, Final residual = 0, No Iterations 0
DILUPBiCGStab:  Solving for h, Initial residual = 0.2628604, Final residual = 7.202245e-07, No Iterations 4
Min/max T:299.9982 300.114
DICPCG:  Solving for p_rgh, Initial residual = 0.08401723, Final residual = 0.003996702, No Iterations 11
diagonal:  Solving for rho, Initial residual = 0, Final residual = 0, No Iterations 0
time step continuity errors (air): sum local = 0.0001651242, global = -1.406891e-05, cumulative = -0.8135028
DICPCG:  Solving for p_rgh, Initial residual = 0.05153917, Final residual = 7.958463e-08, No Iterations 48
diagonal:  Solving for rho, Initial residual = 0, Final residual = 0, No Iterations 0
time step continuity errors (air): sum local = 7.046883e-08, global = -1.838311e-08, cumulative = -0.8135028
DILUPBiCGStab:  Solving for epsilon, Initial residual = 0.1418153, Final residual = 9.259468e-07, No Iterations 4
DILUPBiCGStab:  Solving for k, Initial residual = 0.17261, Final residual = 7.704913e-07, No Iterations 4

Solving for solid region solid
DICPCG:  Solving for h, Initial residual = 0.2857851, Final residual = 7.286166e-10, No Iterations 2
Min/max T:300 300.0037

Solving for solid region floor
DICPCG:  Solving for h, Initial residual = 0.99992, Final residual = 7.080314e-11, No Iterations 2
Min/max T:300 303.8694
ExecutionTime = 1.46 s  ClockTime = 2 s

Region: air Courant Number mean: 1.338163 max: 2.072356
Region: solid Diffusion Number mean: 0.0001128979 max: 0.0004569052
Region: floor Diffusion Number mean: 3.96617e-05 max: 0.0001586476
deltaT = 3.800145
Time = 23.3627


Solving for fluid region air
diagonal:  Solving for rho, Initial residual = 0, Final residual = 0, No Iterations 0
DILUPBiCGStab:  Solving for h, Initial residual = 0.262741, Final residual = 4.659561e-07, No Iterations 5
Min/max T:299.9997 300.1309
DICPCG:  Solving for p_rgh, Initial residual = 0.1057397, Final residual = 0.004376188, No Iterations 11
diagonal:  Solving for rho, Initial residual = 0, Final residual = 0, No Iterations 0
time step continuity errors (air): sum local = 0.0002113305, global = -1.969355e-05, cumulative = -0.8135225
DICPCG:  Solving for p_rgh, Initial residual = 0.05200162, Final residual = 7.726403e-08, No Iterations 48
diagonal:  Solving for rho, Initial residual = 0, Final residual = 0, No Iterations 0
time step continuity errors (air): sum local = 7.300895e-08, global = -2.394358e-08, cumulative = -0.8135225
DILUPBiCGStab:  Solving for epsilon, Initial residual = 0.1140728, Final residual = 2.086892e-07, No Iterations 4
DILUPBiCGStab:  Solving for k, Initial residual = 0.1457101, Final residual = 3.25992e-07, No Iterations 5

Solving for solid region solid
DICPCG:  Solving for h, Initial residual = 0.2868162, Final residual = 1.048603e-09, No Iterations 2
Min/max T:300 300.0045

Solving for solid region floor
DICPCG:  Solving for h, Initial residual = 0.9999049, Final residual = 1.01553e-10, No Iterations 2
Min/max T:300 303.8697
ExecutionTime = 1.53 s  ClockTime = 2 s

Region: air Courant Number mean: 1.746304 max: 2.673294
Region: solid Diffusion Number mean: 0.0001352149 max: 0.0005472236
Region: floor Diffusion Number mean: 4.75018e-05 max: 0.0001900082
deltaT = 4.563726
Time = 27.9265


Solving for fluid region air
diagonal:  Solving for rho, Initial residual = 0, Final residual = 0, No Iterations 0
DILUPBiCGStab:  Solving for h, Initial residual = 0.2565073, Final residual = 3.280306e-07, No Iterations 5
Min/max T:300 300.1528
DICPCG:  Solving for p_rgh, Initial residual = 0.1224359, Final residual = 0.005797752, No Iterations 8
diagonal:  Solving for rho, Initial residual = 0, Final residual = 0, No Iterations 0
time step continuity errors (air): sum local = 0.0003534486, global = -9.352256e-05, cumulative = -0.813616
DICPCG:  Solving for p_rgh, Initial residual = 0.05350746, Final residual = 8.457822e-08, No Iterations 47
diagonal:  Solving for rho, Initial residual = 0, Final residual = 0, No Iterations 0
time step continuity errors (air): sum local = 8.430018e-08, global = -4.968638e-08, cumulative = -0.8136161
DILUPBiCGStab:  Solving for epsilon, Initial residual = 0.09610987, Final residual = 3.151358e-07, No Iterations 4
DILUPBiCGStab:  Solving for k, Initial residual = 0.1250467, Final residual = 5.174056e-07, No Iterations 5

Solving for solid region solid
DICPCG:  Solving for h, Initial residual = 0.288375, Final residual = 1.52001e-09, No Iterations 2
Min/max T:300 300.0053

Solving for solid region floor
DICPCG:  Solving for h, Initial residual = 0.9998871, Final residual = 1.46449e-10, No Iterations 2
Min/max T:300 303.87
ExecutionTime = 1.6 s  ClockTime = 2 s

Region: air Courant Number mean: 2.270357 max: 3.438244
Region: solid Diffusion Number mean: 0.0001623842 max: 0.0006571798
Region: floor Diffusion Number mean: 5.704656e-05 max: 0.0002281874
deltaT = 5.461087
Time = 33.3875


Solving for fluid region air
diagonal:  Solving for rho, Initial residual = 0, Final residual = 0, No Iterations 0
DILUPBiCGStab:  Solving for h, Initial residual = 0.2441937, Final residual = 6.077684e-07, No Iterations 6
Min/max T:300 300.1812
DICPCG:  Solving for p_rgh, Initial residual = 0.1401236, Final residual = 0.006805944, No Iterations 6
diagonal:  Solving for rho, Initial residual = 0, Final residual = 0, No Iterations 0
time step continuity errors (air): sum local = 0.0005190974, global = -0.000102781, cumulative = -0.8137189
DICPCG:  Solving for p_rgh, Initial residual = 0.05626957, Final residual = 7.1822e-08, No Iterations 48
diagonal:  Solving for rho, Initial residual = 0, Final residual = 0, No Iterations 0
time step continuity errors (air): sum local = 8.848392e-08, global = -4.674286e-08, cumulative = -0.8137189
DILUPBiCGStab:  Solving for epsilon, Initial residual = 0.08373338, Final residual = 4.957976e-07, No Iterations 4
DILUPBiCGStab:  Solving for k, Initial residual = 0.1079061, Final residual = 8.968407e-07, No Iterations 5

Solving for solid region solid
DICPCG:  Solving for h, Initial residual = 0.2886515, Final residual = 2.1777e-09, No Iterations 2
Min/max T:300 300.0064

Solving for solid region floor
DICPCG:  Solving for h, Initial residual = 0.9998652, Final residual = 2.096778e-10, No Iterations 2
Min/max T:300 303.8704
ExecutionTime = 1.67 s  ClockTime = 2 s

Region: air Courant Number mean: 2.9209 max: 4.371463
Region: solid Diffusion Number mean: 0.0001943137 max: 0.0007864005
Region: floor Diffusion Number mean: 6.826358e-05 max: 0.0002730557
deltaT = 6.531165
Time = 39.9187


Solving for fluid region air
diagonal:  Solving for rho, Initial residual = 0, Final residual = 0, No Iterations 0
DILUPBiCGStab:  Solving for h, Initial residual = 0.2264539, Final residual = 3.8398e-07, No Iterations 6
Min/max T:300 300.2157
DICPCG:  Solving for p_rgh, Initial residual = 0.155111, Final residual = 0.006372528, No Iterations 6
diagonal:  Solving for rho, Initial residual = 0, Final residual = 0, No Iterations 0
time step continuity errors (air): sum local = 0.0006112169, global = -8.192014e-05, cumulative = -0.8138008
DICPCG:  Solving for p_rgh, Initial residual = 0.05710358, Final residual = 9.764667e-08, No Iterations 47
diagonal:  Solving for rho, Initial residual = 0, Final residual = 0, No Iterations 0
time step continuity errors (air): sum local = 8.338052e-08, global = -3.749769e-08, cumulative = -0.8138009
DILUPBiCGStab:  Solving for epsilon, Initial residual = 0.07913887, Final residual = 6.459878e-07, No Iterations 4
DILUPBiCGStab:  Solving for k, Initial residual = 0.09677146, Final residual = 2.703379e-07, No Iterations 6

Solving for solid region solid
DICPCG:  Solving for h, Initial residual = 0.2887143, Final residual = 3.113853e-09, No Iterations 2
Min/max T:300 300.0076

Solving for solid region floor
DICPCG:  Solving for h, Initial residual = 0.9998389, Final residual = 2.998555e-10, No Iterations 2
Min/max T:300 303.8708
ExecutionTime = 1.74 s  ClockTime = 2 s

Region: air Courant Number mean: 3.730148 max: 5.506556
Region: solid Diffusion Number mean: 0.0002323887 max: 0.0009404925
Region: floor Diffusion Number mean: 8.163955e-05 max: 0.0003265599
deltaT = 7.805539
Time = 47.7243


Solving for fluid region air
diagonal:  Solving for rho, Initial residual = 0, Final residual = 0, No Iterations 0
DILUPBiCGStab:  Solving for h, Initial residual = 0.2038236, Final residual = 3.836212e-07, No Iterations 7
Min/max T:300 300.2562
DICPCG:  Solving for p_rgh, Initial residual = 0.1654015, Final residual = 0.007369188, No Iterations 5
diagonal:  Solving for rho, Initial residual = 0, Final residual = 0, No Iterations 0
time step continuity errors (air): sum local = 0.00089498, global = -1.390491e-06, cumulative = -0.8138023
DICPCG:  Solving for p_rgh, Initial residual = 0.05920943, Final residual = 9.063678e-08, No Iterations 47
diagonal:  Solving for rho, Initial residual = 0, Final residual = 0, No Iterations 0
time step continuity errors (air): sum local = 7.687916e-08, global = -2.166991e-08, cumulative = -0.8138023
DILUPBiCGStab:  Solving for epsilon, Initial residual = 0.07867823, Final residual = 4.20218e-07, No Iterations 5
DILUPBiCGStab:  Solving for k, Initial residual = 0.08986955, Final residual = 1.646085e-07, No Iterations 7

Solving for solid region solid
DICPCG:  Solving for h, Initial residual = 0.2885844, Final residual = 4.44295e-09, No Iterations 2
Min/max T:300 300.0091

Solving for solid region floor
DICPCG:  Solving for h, Initial residual = 0.9998073, Final residual = 4.282138e-10, No Iterations 2
Min/max T:300 303.8713
ExecutionTime = 1.82 s  ClockTime = 2 s

Region: air Courant Number mean: 4.72868 max: 6.902659
Region: solid Diffusion Number mean: 0.0002777328 max: 0.001124003
Region: floor Diffusion Number mean: 9.756921e-05 max: 0.0003902789
deltaT = 9.336037
Time = 57.0603


Solving for fluid region air
diagonal:  Solving for rho, Initial residual = 0, Final residual = 0, No Iterations 0
DILUPBiCGStab:  Solving for h, Initial residual = 0.1771143, Final residual = 3.946665e-07, No Iterations 7
Min/max T:300 300.3011
DICPCG:  Solving for p_rgh, Initial residual = 0.1693128, Final residual = 0.006238428, No Iterations 5
diagonal:  Solving for rho, Initial residual = 0, Final residual = 0, No Iterations 0
time step continuity errors (air): sum local = 0.000967403, global = 3.79366e-05, cumulative = -0.8137643
DICPCG:  Solving for p_rgh, Initial residual = 0.05795553, Final residual = 8.949228e-08, No Iterations 46
diagonal:  Solving for rho, Initial residual = 0, Final residual = 0, No Iterations 0
time step continuity errors (air): sum local = 7.843386e-08, global = -9.540729e-09, cumulative = -0.8137643
DILUPBiCGStab:  Solving for epsilon, Initial residual = 0.07815403, Final residual = 6.522752e-07, No Iterations 5
DILUPBiCGStab:  Solving for k, Initial residual = 0.08523383, Final residual = 7.593989e-07, No Iterations 6

Solving for solid region solid
DICPCG:  Solving for h, Initial residual = 0.2887241, Final residual = 6.354804e-09, No Iterations 2
Min/max T:300 300.0109

Solving for solid region floor
DICPCG:  Solving for h, Initial residual = 0.9997698, Final residual = 6.124761e-10, No Iterations 2
Min/max T:300 303.8719
ExecutionTime = 1.88 s  ClockTime = 2 s

Region: air Courant Number mean: 5.961596 max: 8.581287
Region: solid Diffusion Number mean: 0.0003321902 max: 0.001344396
Region: floor Diffusion Number mean: 0.0001167004 max: 0.0004668042
deltaT = 10.03127
Time = 67.0916


Solving for fluid region air
diagonal:  Solving for rho, Initial residual = 0, Final residual = 0, No Iterations 0
DILUPBiCGStab:  Solving for h, Initial residual = 0.1395671, Final residual = 5.455185e-07, No Iterations 7
Min/max T:300 300.345
DICPCG:  Solving for p_rgh, Initial residual = 0.1582464, Final residual = 0.006219871, No Iterations 5
diagonal:  Solving for rho, Initial residual = 0, Final residual = 0, No Iterations 0
time step continuity errors (air): sum local = 0.001100197, global = 0.000297956, cumulative = -0.8134664
DICPCG:  Solving for p_rgh, Initial residual = 0.05469365, Final residual = 7.716344e-08, No Iterations 48
diagonal:  Solving for rho, Initial residual = 0, Final residual = 0, No Iterations 0
time step continuity errors (air): sum local = 8.592411e-08, global = 3.23014e-08, cumulative = -0.8134664
DILUPBiCGStab:  Solving for epsilon, Initial residual = 0.07310534, Final residual = 6.717328e-07, No Iterations 5
DILUPBiCGStab:  Solving for k, Initial residual = 0.07742282, Final residual = 6.022945e-07, No Iterations 6

Solving for solid region solid
DICPCG:  Solving for h, Initial residual = 0.2608389, Final residual = 6.626499e-09, No Iterations 2
Min/max T:300 300.0128

Solving for solid region floor
DICPCG:  Solving for h, Initial residual = 0.9996938, Final residual = 7.06996e-10, No Iterations 2
Min/max T:300 303.8726
ExecutionTime = 1.96 s  ClockTime = 2 s

Region: air Courant Number mean: 6.710576 max: 9.551723
Region: solid Diffusion Number mean: 0.0003569278 max: 0.001444511
Region: floor Diffusion Number mean: 0.0001253909 max: 0.0005015662
deltaT = 10.03127
Time = 77.1228


Solving for fluid region air
diagonal:  Solving for rho, Initial residual = 0, Final residual = 0, No Iterations 0
DILUPBiCGStab:  Solving for h, Initial residual = 0.1035127, Final residual = 1.544512e-07, No Iterations 7
Min/max T:300 300.3845
DICPCG:  Solving for p_rgh, Initial residual = 0.1431529, Final residual = 0.0058808, No Iterations 5
diagonal:  Solving for rho, Initial residual = 0, Final residual = 0, No Iterations 0
time step continuity errors (air): sum local = 0.001063662, global = 0.000259326, cumulative = -0.813207
DICPCG:  Solving for p_rgh, Initial residual = 0.0494367, Final residual = 9.722738e-08, No Iterations 46
diagonal:  Solving for rho, Initial residual = 0, Final residual = 0, No Iterations 0
time step continuity errors (air): sum local = 8.293972e-08, global = 2.952236e-08, cumulative = -0.813207
DILUPBiCGStab:  Solving for epsilon, Initial residual = 0.06812974, Final residual = 4.988217e-07, No Iterations 5
DILUPBiCGStab:  Solving for k, Initial residual = 0.07079331, Final residual = 9.877396e-07, No Iterations 5

Solving for solid region solid
DICPCG:  Solving for h, Initial residual = 0.2235974, Final residual = 5.681369e-09, No Iterations 2
Min/max T:300 300.0147

Solving for solid region floor
DICPCG:  Solving for h, Initial residual = 0.9995776, Final residual = 7.069353e-10, No Iterations 2
Min/max T:300 303.8732
ExecutionTime = 2.02 s  ClockTime = 2 s

Region: air Courant Number mean: 6.991187 max: 9.815293
Region: solid Diffusion Number mean: 0.0003569278 max: 0.001444511
Region: floor Diffusion Number mean: 0.0001253909 max: 0.0005015662
deltaT = 10.03127
Time = 87.1541


Solving for fluid region air
diagonal:  Solving for rho, Initial residual = 0, Final residual = 0, No Iterations 0
DILUPBiCGStab:  Solving for h, Initial residual = 0.07609084, Final residual = 4.05065e-08, No Iterations 7
Min/max T:300 300.4209
DICPCG:  Solving for p_rgh, Initial residual = 0.1234817, Final residual = 0.005591161, No Iterations 5
diagonal:  Solving for rho, Initial residual = 0, Final residual = 0, No Iterations 0
time step continuity errors (air): sum local = 0.00103867, global = 0.0001792962, cumulative = -0.8130277
DICPCG:  Solving for p_rgh, Initial residual = 0.04386026, Final residual = 9.162063e-08, No Iterations 45
diagonal:  Solving for rho, Initial residual = 0, Final residual = 0, No Iterations 0
time step continuity errors (air): sum local = 7.886376e-08, global = 2.855829e-08, cumulative = -0.8130277
DILUPBiCGStab:  Solving for epsilon, Initial residual = 0.06429467, Final residual = 5.740216e-07, No Iterations 5
DILUPBiCGStab:  Solving for k, Initial residual = 0.06538153, Final residual = 8.960641e-07, No Iterations 5

Solving for solid region solid
DICPCG:  Solving for h, Initial residual = 0.195827, Final residual = 4.976711e-09, No Iterations 2
Min/max T:300 300.0166

Solving for solid region floor
DICPCG:  Solving for h, Initial residual = 0.9994441, Final residual = 7.068624e-10, No Iterations 2
Min/max T:300 303.8739
ExecutionTime = 2.11 s  ClockTime = 2 s

Region: air Courant Number mean: 7.248195 max: 10.06988
Region: solid Diffusion Number mean: 0.0003569278 max: 0.001444511
Region: floor Diffusion Number mean: 0.0001253909 max: 0.0005015662
deltaT = 10.03127
Time = 97.1854


Solving for fluid region air
diagonal:  Solving for rho, Initial residual = 0, Final residual = 0, No Iterations 0
DILUPBiCGStab:  Solving for h, Initial residual = 0.05530308, Final residual = 8.961137e-07, No Iterations 5
Min/max T:300 300.4525
DICPCG:  Solving for p_rgh, Initial residual = 0.1052965, Final residual = 0.004501808, No Iterations 6
diagonal:  Solving for rho, Initial residual = 0, Final residual = 0, No Iterations 0
time step continuity errors (air): sum local = 0.0008579366, global = 9.663051e-05, cumulative = -0.812931
DICPCG:  Solving for p_rgh, Initial residual = 0.03741642, Final residual = 8.04571e-08, No Iterations 46
diagonal:  Solving for rho, Initial residual = 0, Final residual = 0, No Iterations 0
time step continuity errors (air): sum local = 6.979198e-08, global = 2.008857e-08, cumulative = -0.812931
DILUPBiCGStab:  Solving for epsilon, Initial residual = 0.0616793, Final residual = 2.447612e-07, No Iterations 5
DILUPBiCGStab:  Solving for k, Initial residual = 0.06116428, Final residual = 7.51755e-07, No Iterations 5

Solving for solid region solid
DICPCG:  Solving for h, Initial residual = 0.1742834, Final residual = 4.430101e-09, No Iterations 2
Min/max T:300 300.0185

Solving for solid region floor
DICPCG:  Solving for h, Initial residual = 0.9992933, Final residual = 7.067771e-10, No Iterations 2
Min/max T:300 303.8745
ExecutionTime = 2.18 s  ClockTime = 2 s

Region: air Courant Number mean: 7.483278 max: 10.28712
Region: solid Diffusion Number mean: 0.0003569278 max: 0.001444511
Region: floor Diffusion Number mean: 0.0001253909 max: 0.0005015662
deltaT = 10.03127
Time = 107.217


Solving for fluid region air
diagonal:  Solving for rho, Initial residual = 0, Final residual = 0, No Iterations 0
DILUPBiCGStab:  Solving for h, Initial residual = 0.04014163, Final residual = 5.831498e-07, No Iterations 5
Min/max T:300 300.4787
DICPCG:  Solving for p_rgh, Initial residual = 0.09329279, Final residual = 0.004394091, No Iterations 6
diagonal:  Solving for rho, Initial residual = 0, Final residual = 0, No Iterations 0
time step continuity errors (air): sum local = 0.0008568897, global = 0.0001197502, cumulative = -0.8128113
DICPCG:  Solving for p_rgh, Initial residual = 0.03384952, Final residual = 7.171741e-08, No Iterations 46
diagonal:  Solving for rho, Initial residual = 0, Final residual = 0, No Iterations 0
time step continuity errors (air): sum local = 6.760502e-08, global = 2.528701e-08, cumulative = -0.8128113
DILUPBiCGStab:  Solving for epsilon, Initial residual = 0.05933185, Final residual = 4.524182e-07, No Iterations 5
DILUPBiCGStab:  Solving for k, Initial residual = 0.05842137, Final residual = 5.783442e-07, No Iterations 5

Solving for solid region solid
DICPCG:  Solving for h, Initial residual = 0.1570767, Final residual = 3.993522e-09, No Iterations 2
Min/max T:300 300.0204

Solving for solid region floor
DICPCG:  Solving for h, Initial residual = 0.9991251, Final residual = 7.066794e-10, No Iterations 2
Min/max T:300 303.8752
ExecutionTime = 2.25 s  ClockTime = 3 s

Region: air Courant Number mean: 7.6986 max: 10.48269
Region: solid Diffusion Number mean: 0.0003569278 max: 0.001444511
Region: floor Diffusion Number mean: 0.0001253909 max: 0.0005015662
deltaT = 10.03127
Time = 117.248


Solving for fluid region air
diagonal:  Solving for rho, Initial residual = 0, Final residual = 0, No Iterations 0
DILUPBiCGStab:  Solving for h, Initial residual = 0.02924163, Final residual = 4.361826e-07, No Iterations 5
Min/max T:300 300.4999
DICPCG:  Solving for p_rgh, Initial residual = 0.08401223, Final residual = 0.00363737, No Iterations 7
diagonal:  Solving for rho, Initial residual = 0, Final residual = 0, No Iterations 0
time step continuity errors (air): sum local = 0.0007221469, global = 7.670062e-05, cumulative = -0.8127346
DICPCG:  Solving for p_rgh, Initial residual = 0.03037912, Final residual = 6.752024e-08, No Iterations 46
diagonal:  Solving for rho, Initial residual = 0, Final residual = 0, No Iterations 0
time step continuity errors (air): sum local = 6.176403e-08, global = 1.96646e-08, cumulative = -0.8127345
DILUPBiCGStab:  Solving for epsilon, Initial residual = 0.05468388, Final residual = 3.824904e-07, No Iterations 5
DILUPBiCGStab:  Solving for k, Initial residual = 0.05388469, Final residual = 6.183157e-07, No Iterations 5

Solving for solid region solid
DICPCG:  Solving for h, Initial residual = 0.1430177, Final residual = 3.636773e-09, No Iterations 2
Min/max T:300 300.0223

Solving for solid region floor
DICPCG:  Solving for h, Initial residual = 0.9989396, Final residual = 7.065694e-10, No Iterations 2
Min/max T:300 303.8759
ExecutionTime = 2.32 s  ClockTime = 3 s

Region: air Courant Number mean: 7.895568 max: 10.6892
Region: solid Diffusion Number mean: 0.0003569278 max: 0.001444511
Region: floor Diffusion Number mean: 0.0001253909 max: 0.0005015662
deltaT = 10.03127
Time = 127.279


Solving for fluid region air
diagonal:  Solving for rho, Initial residual = 0, Final residual = 0, No Iterations 0
DILUPBiCGStab:  Solving for h, Initial residual = 0.02155604, Final residual = 4.051757e-07, No Iterations 5
Min/max T:300 300.5167
DICPCG:  Solving for p_rgh, Initial residual = 0.07465436, Final residual = 0.003603482, No Iterations 8
diagonal:  Solving for rho, Initial residual = 0, Final residual = 0, No Iterations 0
time step continuity errors (air): sum local = 0.000726896, global = 7.973354e-05, cumulative = -0.8126548
DICPCG:  Solving for p_rgh, Initial residual = 0.02783095, Final residual = 7.80651e-08, No Iterations 45
diagonal:  Solving for rho, Initial residual = 0, Final residual = 0, No Iterations 0
time step continuity errors (air): sum local = 5.833728e-08, global = 2.263206e-08, cumulative = -0.8126548
DILUPBiCGStab:  Solving for epsilon, Initial residual = 0.05284929, Final residual = 3.594666e-07, No Iterations 5
DILUPBiCGStab:  Solving for k, Initial residual = 0.051433, Final residual = 7.624963e-07, No Iterations 5

Solving for solid region solid
DICPCG:  Solving for h, Initial residual = 0.1313015, Final residual = 3.339422e-09, No Iterations 2
Min/max T:300 300.0241

Solving for solid region floor
DICPCG:  Solving for h, Initial residual = 0.9987368, Final residual = 7.064471e-10, No Iterations 2
Min/max T:300 303.8765
ExecutionTime = 2.39 s  ClockTime = 3 s

Region: air Courant Number mean: 8.075089 max: 10.8822
Region: solid Diffusion Number mean: 0.0003569278 max: 0.001444511
Region: floor Diffusion Number mean: 0.0001253909 max: 0.0005015662
deltaT = 10.03127
Time = 137.31


Solving for fluid region air
diagonal:  Solving for rho, Initial residual = 0, Final residual = 0, No Iterations 0
DILUPBiCGStab:  Solving for h, Initial residual = 0.01657372, Final residual = 4.942685e-07, No Iterations 5
Min/max T:300 300.5291
DICPCG:  Solving for p_rgh, Initial residual = 0.06910075, Final residual = 0.003148928, No Iterations 9
diagonal:  Solving for rho, Initial residual = 0, Final residual = 0, No Iterations 0
time step continuity errors (air): sum local = 0.0006465842, global = 6.127657e-05, cumulative = -0.8125935
DICPCG:  Solving for p_rgh, Initial residual = 0.02578036, Final residual = 8.3614e-08, No Iterations 43
diagonal:  Solving for rho, Initial residual = 0, Final residual = 0, No Iterations 0
time step continuity errors (air): sum local = 5.454431e-08, global = 1.999838e-08, cumulative = -0.8125935
DILUPBiCGStab:  Solving for epsilon, Initial residual = 0.05288132, Final residual = 3.686538e-07, No Iterations 5
DILUPBiCGStab:  Solving for k, Initial residual = 0.05117675, Final residual = 1.951378e-07, No Iterations 6

Solving for solid region solid
DICPCG:  Solving for h, Initial residual = 0.1213798, Final residual = 3.087554e-09, No Iterations 2
Min/max T:300 300.026

Solving for solid region floor
DICPCG:  Solving for h, Initial residual = 0.9985166, Final residual = 7.063125e-10, No Iterations 2
Min/max T:300 303.8772
ExecutionTime = 2.47 s  ClockTime = 3 s

Region: air Courant Number mean: 8.237681 max: 11.07233
Region: solid Diffusion Number mean: 0.0003569278 max: 0.001444511
Region: floor Diffusion Number mean: 0.0001253909 max: 0.0005015662
deltaT = 10.03127
Time = 147.342


Solving for fluid region air
diagonal:  Solving for rho, Initial residual = 0, Final residual = 0, No Iterations 0
DILUPBiCGStab:  Solving for h, Initial residual = 0.01346823, Final residual = 5.281795e-07, No Iterations 5
Min/max T:300 300.5379
DICPCG:  Solving for p_rgh, Initial residual = 0.06816798, Final residual = 0.003250975, No Iterations 9
diagonal:  Solving for rho, Initial residual = 0, Final residual = 0, No Iterations 0
time step continuity errors (air): sum local = 0.0006809038, global = 8.004419e-05, cumulative = -0.8125134
DICPCG:  Solving for p_rgh, Initial residual = 0.02505372, Final residual = 7.964809e-08, No Iterations 43
diagonal:  Solving for rho, Initial residual = 0, Final residual = 0, No Iterations 0
time step continuity errors (air): sum local = 5.522899e-08, global = 2.309546e-08, cumulative = -0.8125134
DILUPBiCGStab:  Solving for epsilon, Initial residual = 0.05112743, Final residual = 4.386926e-07, No Iterations 5
DILUPBiCGStab:  Solving for k, Initial residual = 0.05018327, Final residual = 2.92345e-07, No Iterations 6

Solving for solid region solid
DICPCG:  Solving for h, Initial residual = 0.1128648, Final residual = 2.871339e-09, No Iterations 2
Min/max T:300 300.0279

Solving for solid region floor
DICPCG:  Solving for h, Initial residual = 0.9982791, Final residual = 7.061656e-10, No Iterations 2
Min/max T:300 303.8778
ExecutionTime = 2.53 s  ClockTime = 3 s

Region: air Courant Number mean: 8.384403 max: 11.26898
Region: solid Diffusion Number mean: 0.0003569278 max: 0.001444511
Region: floor Diffusion Number mean: 0.0001253909 max: 0.0005015662
deltaT = 10.03127
Time = 157.373


Solving for fluid region air
diagonal:  Solving for rho, Initial residual = 0, Final residual = 0, No Iterations 0
DILUPBiCGStab:  Solving for h, Initial residual = 0.01137247, Final residual = 5.216829e-07, No Iterations 5
Min/max T:300 300.5442
DICPCG:  Solving for p_rgh, Initial residual = 0.06467087, Final residual = 0.003068376, No Iterations 9
diagonal:  Solving for rho, Initial residual = 0, Final residual = 0, No Iterations 0
time step continuity errors (air): sum local = 0.0006544652, global = 0.0001009071, cumulative = -0.8124125
DICPCG:  Solving for p_rgh, Initial residual = 0.02366588, Final residual = 7.782489e-08, No Iterations 43
diagonal:  Solving for rho, Initial residual = 0, Final residual = 0, No Iterations 0
time step continuity errors (air): sum local = 5.379212e-08, global = 2.912852e-08, cumulative = -0.8124125
DILUPBiCGStab:  Solving for epsilon, Initial residual = 0.04686025, Final residual = 3.991095e-07, No Iterations 5
DILUPBiCGStab:  Solving for k, Initial residual = 0.04731271, Final residual = 3.978815e-07, No Iterations 6

Solving for solid region solid
DICPCG:  Solving for h, Initial residual = 0.1054741, Final residual = 2.683624e-09, No Iterations 2
Min/max T:300 300.0298

Solving for solid region floor
DICPCG:  Solving for h, Initial residual = 0.9980244, Final residual = 7.060064e-10, No Iterations 2
Min/max T:300 303.8785
ExecutionTime = 2.6 s  ClockTime = 3 s

Region: air Courant Number mean: 8.515773 max: 11.49516
Region: solid Diffusion Number mean: 0.0003569278 max: 0.001444511
Region: floor Diffusion Number mean: 0.0001253909 max: 0.0005015662
deltaT = 10.03127
Time = 167.404


Solving for fluid region air
diagonal:  Solving for rho, Initial residual = 0, Final residual = 0, No Iterations 0
DILUPBiCGStab:  Solving for h, Initial residual = 0.009876288, Final residual = 5.342251e-07, No Iterations 5
Min/max T:300 300.5493
DICPCG:  Solving for p_rgh, Initial residual = 0.05804567, Final residual = 0.002437181, No Iterations 10
diagonal:  Solving for rho, Initial residual = 0, Final residual = 0, No Iterations 0
time step continuity errors (air): sum local = 0.0005325219, global = 7.036083e-05, cumulative = -0.8123421
DICPCG:  Solving for p_rgh, Initial residual = 0.02108433, Final residual = 7.199273e-08, No Iterations 43
diagonal:  Solving for rho, Initial residual = 0, Final residual = 0, No Iterations 0
time step continuity errors (air): sum local = 4.769203e-08, global = 2.5653e-08, cumulative = -0.8123421
DILUPBiCGStab:  Solving for epsilon, Initial residual = 0.04522282, Final residual = 4.253968e-07, No Iterations 5
DILUPBiCGStab:  Solving for k, Initial residual = 0.0461281, Final residual = 3.148741e-07, No Iterations 6

Solving for solid region solid
DICPCG:  Solving for h, Initial residual = 0.09899704, Final residual = 2.519067e-09, No Iterations 2
Min/max T:300 300.0317

Solving for solid region floor
DICPCG:  Solving for h, Initial residual = 0.9977524, Final residual = 7.058351e-10, No Iterations 2
Min/max T:300 303.8792
ExecutionTime = 2.67 s  ClockTime = 3 s

Region: air Courant Number mean: 8.632009 max: 11.73824
Region: solid Diffusion Number mean: 0.0003569278 max: 0.001444511
Region: floor Diffusion Number mean: 0.0001253909 max: 0.0005015662
deltaT = 10.03127
Time = 177.436


Solving for fluid region air
diagonal:  Solving for rho, Initial residual = 0, Final residual = 0, No Iterations 0
DILUPBiCGStab:  Solving for h, Initial residual = 0.009028495, Final residual = 6.047284e-07, No Iterations 5
Min/max T:300 300.5521
DICPCG:  Solving for p_rgh, Initial residual = 0.05516167, Final residual = 0.002446622, No Iterations 10
diagonal:  Solving for rho, Initial residual = 0, Final residual = 0, No Iterations 0
time step continuity errors (air): sum local = 0.0005501422, global = 7.448155e-05, cumulative = -0.8122676
DICPCG:  Solving for p_rgh, Initial residual = 0.02000684, Final residual = 8.259609e-08, No Iterations 43
diagonal:  Solving for rho, Initial residual = 0, Final residual = 0, No Iterations 0
time step continuity errors (air): sum local = 4.913889e-08, global = 2.472815e-08, cumulative = -0.8122676
DILUPBiCGStab:  Solving for epsilon, Initial residual = 0.04449655, Final residual = 4.881849e-07, No Iterations 5
DILUPBiCGStab:  Solving for k, Initial residual = 0.04562136, Final residual = 2.73776e-07, No Iterations 6

Solving for solid region solid
DICPCG:  Solving for h, Initial residual = 0.09327263, Final residual = 2.373592e-09, No Iterations 2
Min/max T:300 300.0336

Solving for solid region floor
DICPCG:  Solving for h, Initial residual = 0.9974632, Final residual = 7.056515e-10, No Iterations 2
Min/max T:300.0001 303.8798
ExecutionTime = 2.74 s  ClockTime = 3 s

Region: air Courant Number mean: 8.733889 max: 12.00462
Region: solid Diffusion Number mean: 0.0003569278 max: 0.001444511
Region: floor Diffusion Number mean: 0.0001253909 max: 0.0005015662
deltaT = 10.03127
Time = 187.467


Solving for fluid region air
diagonal:  Solving for rho, Initial residual = 0, Final residual = 0, No Iterations 0
DILUPBiCGStab:  Solving for h, Initial residual = 0.008535894, Final residual = 7.241072e-07, No Iterations 5
Min/max T:300 300.5537
DICPCG:  Solving for p_rgh, Initial residual = 0.05241283, Final residual = 0.00220685, No Iterations 10
diagonal:  Solving for rho, Initial residual = 0, Final residual = 0, No Iterations 0
time step continuity errors (air): sum local = 0.0005117897, global = 8.761246e-05, cumulative = -0.81218
DICPCG:  Solving for p_rgh, Initial residual = 0.01896272, Final residual = 7.323242e-08, No Iterations 43
diagonal:  Solving for rho, Initial residual = 0, Final residual = 0, No Iterations 0
time step continuity errors (air): sum local = 4.702765e-08, global = 2.840949e-08, cumulative = -0.8121799
DILUPBiCGStab:  Solving for epsilon, Initial residual = 0.04296216, Final residual = 6.487254e-07, No Iterations 5
DILUPBiCGStab:  Solving for k, Initial residual = 0.04411126, Final residual = 2.509282e-07, No Iterations 6

Solving for solid region solid
DICPCG:  Solving for h, Initial residual = 0.08817601, Final residual = 2.244039e-09, No Iterations 2
Min/max T:300 300.0355

Solving for solid region floor
DICPCG:  Solving for h, Initial residual = 0.9971569, Final residual = 7.054557e-10, No Iterations 2
Min/max T:300.0001 303.8805
ExecutionTime = 2.8 s  ClockTime = 3 s

Region: air Courant Number mean: 8.822879 max: 12.322
Region: solid Diffusion Number mean: 0.0003569278 max: 0.001444511
Region: floor Diffusion Number mean: 0.0001253909 max: 0.0005015662
deltaT = 10.03127
Time = 197.498


Solving for fluid region air
diagonal:  Solving for rho, Initial residual = 0, Final residual = 0, No Iterations 0
DILUPBiCGStab:  Solving for h, Initial residual = 0.008105601, Final residual = 5.592709e-07, No Iterations 5
Min/max T:300 300.5545
DICPCG:  Solving for p_rgh, Initial residual = 0.0487381, Final residual = 0.001966102, No Iterations 10
diagonal:  Solving for rho, Initial residual = 0, Final residual = 0, No Iterations 0
time step continuity errors (air): sum local = 0.0004730572, global = 7.92171e-05, cumulative = -0.8121007
DICPCG:  Solving for p_rgh, Initial residual = 0.01772381, Final residual = 8.69508e-08, No Iterations 41
diagonal:  Solving for rho, Initial residual = 0, Final residual = 0, No Iterations 0
time step continuity errors (air): sum local = 4.630765e-08, global = 2.615352e-08, cumulative = -0.8121007
DILUPBiCGStab:  Solving for epsilon, Initial residual = 0.03931927, Final residual = 6.199984e-07, No Iterations 5
DILUPBiCGStab:  Solving for k, Initial residual = 0.04095771, Final residual = 2.067641e-07, No Iterations 6

Solving for solid region solid
DICPCG:  Solving for h, Initial residual = 0.08360867, Final residual = 2.127917e-09, No Iterations 2
Min/max T:300 300.0373

Solving for solid region floor
DICPCG:  Solving for h, Initial residual = 0.9968333, Final residual = 7.052477e-10, No Iterations 2
Min/max T:300.0001 303.8811
ExecutionTime = 2.87 s  ClockTime = 3 s

Region: air Courant Number mean: 8.899073 max: 12.66548
Region: solid Diffusion Number mean: 0.0003569278 max: 0.001444511
Region: floor Diffusion Number mean: 0.0001253909 max: 0.0005015662
deltaT = 10.03127
Time = 207.529


Solving for fluid region air
diagonal:  Solving for rho, Initial residual = 0, Final residual = 0, No Iterations 0
DILUPBiCGStab:  Solving for h, Initial residual = 0.007640356, Final residual = 5.399187e-07, No Iterations 5
Min/max T:300 300.555
DICPCG:  Solving for p_rgh, Initial residual = 0.04408318, Final residual = 0.001833259, No Iterations 10
diagonal:  Solving for rho, Initial residual = 0, Final residual = 0, No Iterations 0
time step continuity errors (air): sum local = 0.00045751, global = 6.449712e-05, cumulative = -0.8120362
DICPCG:  Solving for p_rgh, Initial residual = 0.01644123, Final residual = 8.58739e-08, No Iterations 41
diagonal:  Solving for rho, Initial residual = 0, Final residual = 0, No Iterations 0
time step continuity errors (air): sum local = 4.468591e-08, global = 2.258965e-08, cumulative = -0.8120362
DILUPBiCGStab:  Solving for epsilon, Initial residual = 0.03726362, Final residual = 3.988189e-07, No Iterations 5
DILUPBiCGStab:  Solving for k, Initial residual = 0.03927431, Final residual = 1.779505e-07, No Iterations 6

Solving for solid region solid
DICPCG:  Solving for h, Initial residual = 0.07949178, Final residual = 2.023231e-09, No Iterations 2
Min/max T:300 300.0392

Solving for solid region floor
DICPCG:  Solving for h, Initial residual = 0.9964927, Final residual = 7.050276e-10, No Iterations 2
Min/max T:300.0001 303.8818
ExecutionTime = 2.94 s  ClockTime = 3 s

Region: air Courant Number mean: 8.962873 max: 13.01887
Region: solid Diffusion Number mean: 0.0003569278 max: 0.001444511
Region: floor Diffusion Number mean: 0.0001253909 max: 0.0005015662
deltaT = 10.03127
Time = 217.561


Solving for fluid region air
diagonal:  Solving for rho, Initial residual = 0, Final residual = 0, No Iterations 0
DILUPBiCGStab:  Solving for h, Initial residual = 0.00732652, Final residual = 6.828688e-07, No Iterations 5
Min/max T:300 300.5552
DICPCG:  Solving for p_rgh, Initial residual = 0.04124753, Final residual = 0.00201889, No Iterations 9
diagonal:  Solving for rho, Initial residual = 0, Final residual = 0, No Iterations 0
time step continuity errors (air): sum local = 0.0005198962, global = 8.649796e-05, cumulative = -0.8119497
DICPCG:  Solving for p_rgh, Initial residual = 0.01559526, Final residual = 7.317429e-08, No Iterations 42
diagonal:  Solving for rho, Initial residual = 0, Final residual = 0, No Iterations 0
time step continuity errors (air): sum local = 4.498779e-08, global = 2.629895e-08, cumulative = -0.8119497
DILUPBiCGStab:  Solving for epsilon, Initial residual = 0.03623159, Final residual = 3.507697e-07, No Iterations 5
DILUPBiCGStab:  Solving for k, Initial residual = 0.03784916, Final residual = 1.447605e-07, No Iterations 6

Solving for solid region solid
DICPCG:  Solving for h, Initial residual = 0.07576151, Final residual = 1.928365e-09, No Iterations 2
Min/max T:300 300.0411

Solving for solid region floor
DICPCG:  Solving for h, Initial residual = 0.996135, Final residual = 7.047953e-10, No Iterations 2
Min/max T:300.0001 303.8824
ExecutionTime = 3.01 s  ClockTime = 3 s

Region: air Courant Number mean: 9.01677 max: 13.37665
Region: solid Diffusion Number mean: 0.0003569278 max: 0.001444511
Region: floor Diffusion Number mean: 0.0001253909 max: 0.0005015662
deltaT = 10.03127
Time = 227.592


Solving for fluid region air
diagonal:  Solving for rho, Initial residual = 0, Final residual = 0, No Iterations 0
DILUPBiCGStab:  Solving for h, Initial residual = 0.007087001, Final residual = 3.708792e-07, No Iterations 5
Min/max T:300 300.5553
DICPCG:  Solving for p_rgh, Initial residual = 0.03904639, Final residual = 0.001950529, No Iterations 7
diagonal:  Solving for rho, Initial residual = 0, Final residual = 0, No Iterations 0
time step continuity errors (air): sum local = 0.0005192187, global = 7.361384e-05, cumulative = -0.811876
DICPCG:  Solving for p_rgh, Initial residual = 0.01493497, Final residual = 7.975994e-08, No Iterations 43
diagonal:  Solving for rho, Initial residual = 0, Final residual = 0, No Iterations 0
time step continuity errors (air): sum local = 4.954689e-08, global = 2.884905e-08, cumulative = -0.811876
DILUPBiCGStab:  Solving for epsilon, Initial residual = 0.03387724, Final residual = 3.493073e-07, No Iterations 5
DILUPBiCGStab:  Solving for k, Initial residual = 0.0355214, Final residual = 8.894492e-07, No Iterations 5

Solving for solid region solid
DICPCG:  Solving for h, Initial residual = 0.07236554, Final residual = 1.841994e-09, No Iterations 2
Min/max T:300 300.043

Solving for solid region floor
DICPCG:  Solving for h, Initial residual = 0.9957603, Final residual = 7.04551e-10, No Iterations 2
Min/max T:300.0001 303.8831
ExecutionTime = 3.07 s  ClockTime = 3 s

Region: air Courant Number mean: 9.060546 max: 13.72755
Region: solid Diffusion Number mean: 0.0003569278 max: 0.001444511
Region: floor Diffusion Number mean: 0.0001253909 max: 0.0005015662
deltaT = 10.03127
Time = 237.623


Solving for fluid region air
diagonal:  Solving for rho, Initial residual = 0, Final residual = 0, No Iterations 0
DILUPBiCGStab:  Solving for h, Initial residual = 0.006756198, Final residual = 3.590646e-07, No Iterations 5
Min/max T:300 300.5554
DICPCG:  Solving for p_rgh, Initial residual = 0.03615201, Final residual = 0.001738575, No Iterations 6
diagonal:  Solving for rho, Initial residual = 0, Final residual = 0, No Iterations 0
time step continuity errors (air): sum local = 0.0004782714, global = 2.747391e-05, cumulative = -0.8118485
DICPCG:  Solving for p_rgh, Initial residual = 0.01375734, Final residual = 9.150571e-08, No Iterations 43
diagonal:  Solving for rho, Initial residual = 0, Final residual = 0, No Iterations 0
time step continuity errors (air): sum local = 4.864022e-08, global = 1.826314e-08, cumulative = -0.8118485
DILUPBiCGStab:  Solving for epsilon, Initial residual = 0.03102259, Final residual = 5.567973e-07, No Iterations 5
DILUPBiCGStab:  Solving for k, Initial residual = 0.03289639, Final residual = 6.038834e-07, No Iterations 5

Solving for solid region solid
DICPCG:  Solving for h, Initial residual = 0.06926065, Final residual = 1.763022e-09, No Iterations 2
Min/max T:300 300.0448

Solving for solid region floor
DICPCG:  Solving for h, Initial residual = 0.9953686, Final residual = 7.042946e-10, No Iterations 2
Min/max T:300.0001 303.8838
ExecutionTime = 3.16 s  ClockTime = 3 s

Region: air Courant Number mean: 9.094911 max: 14.06132
Region: solid Diffusion Number mean: 0.0003569278 max: 0.001444511
Region: floor Diffusion Number mean: 0.0001253909 max: 0.0005015662
deltaT = 10.03127
Time = 247.654


Solving for fluid region air
diagonal:  Solving for rho, Initial residual = 0, Final residual = 0, No Iterations 0
DILUPBiCGStab:  Solving for h, Initial residual = 0.00645135, Final residual = 4.191626e-07, No Iterations 5
Min/max T:300 300.5555
DICPCG:  Solving for p_rgh, Initial residual = 0.03388316, Final residual = 0.001538506, No Iterations 6
diagonal:  Solving for rho, Initial residual = 0, Final residual = 0, No Iterations 0
time step continuity errors (air): sum local = 0.0004333124, global = 5.120969e-05, cumulative = -0.8117973
DICPCG:  Solving for p_rgh, Initial residual = 0.01268407, Final residual = 9.246297e-08, No Iterations 43
diagonal:  Solving for rho, Initial residual = 0, Final residual = 0, No Iterations 0
time step continuity errors (air): sum local = 4.817733e-08, global = 2.319034e-08, cumulative = -0.8117973
DILUPBiCGStab:  Solving for epsilon, Initial residual = 0.02943272, Final residual = 3.813117e-07, No Iterations 5
DILUPBiCGStab:  Solving for k, Initial residual = 0.03108482, Final residual = 7.238432e-08, No Iterations 6

Solving for solid region solid
DICPCG:  Solving for h, Initial residual = 0.06641078, Final residual = 1.690534e-09, No Iterations 2
Min/max T:300 300.0467

Solving for solid region floor
DICPCG:  Solving for h, Initial residual = 0.9949599, Final residual = 7.040262e-10, No Iterations 2
Min/max T:300.0001 303.8844
ExecutionTime = 3.25 s  ClockTime = 4 s

Region: air Courant Number mean: 9.121419 max: 14.34929
Region: solid Diffusion Number mean: 0.0003569278 max: 0.001444511
Region: floor Diffusion Number mean: 0.0001253909 max: 0.0005015662
deltaT = 10.03127
Time = 257.686


Solving for fluid region air
diagonal:  Solving for rho, Initial residual = 0, Final residual = 0, No Iterations 0
DILUPBiCGStab:  Solving for h, Initial residual = 0.006178927, Final residual = 1.3704e-07, No Iterations 6
Min/max T:300 300.5556
DICPCG:  Solving for p_rgh, Initial residual = 0.03182997, Final residual = 0.001454095, No Iterations 6
diagonal:  Solving for rho, Initial residual = 0, Final residual = 0, No Iterations 0
time step continuity errors (air): sum local = 0.0004205653, global = 3.32818e-05, cumulative = -0.811764
DICPCG:  Solving for p_rgh, Initial residual = 0.01187449, Final residual = 7.387673e-08, No Iterations 41
diagonal:  Solving for rho, Initial residual = 0, Final residual = 0, No Iterations 0
time step continuity errors (air): sum local = 4.306097e-08, global = 1.779696e-08, cumulative = -0.811764
DILUPBiCGStab:  Solving for epsilon, Initial residual = 0.02723235, Final residual = 1.811087e-07, No Iterations 5
DILUPBiCGStab:  Solving for k, Initial residual = 0.02899602, Final residual = 3.011754e-07, No Iterations 5

Solving for solid region solid
DICPCG:  Solving for h, Initial residual = 0.06378558, Final residual = 1.623759e-09, No Iterations 2
Min/max T:300 300.0486

Solving for solid region floor
DICPCG:  Solving for h, Initial residual = 0.9945343, Final residual = 7.037458e-10, No Iterations 2
Min/max T:300.0001 303.8851
ExecutionTime = 3.31 s  ClockTime = 4 s

Region: air Courant Number mean: 9.140744 max: 14.63665
Region: solid Diffusion Number mean: 0.0003569278 max: 0.001444511
Region: floor Diffusion Number mean: 0.0001253909 max: 0.0005015662
deltaT = 10.03127
Time = 267.717


Solving for fluid region air
diagonal:  Solving for rho, Initial residual = 0, Final residual = 0, No Iterations 0
DILUPBiCGStab:  Solving for h, Initial residual = 0.005835465, Final residual = 1.004614e-07, No Iterations 6
Min/max T:300 300.5556
DICPCG:  Solving for p_rgh, Initial residual = 0.02997033, Final residual = 0.001327182, No Iterations 6
diagonal:  Solving for rho, Initial residual = 0, Final residual = 0, No Iterations 0
time step continuity errors (air): sum local = 0.0003919227, global = 4.647612e-05, cumulative = -0.8117175
DICPCG:  Solving for p_rgh, Initial residual = 0.01098029, Final residual = 9.724067e-08, No Iterations 41
diagonal:  Solving for rho, Initial residual = 0, Final residual = 0, No Iterations 0
time step continuity errors (air): sum local = 4.70388e-08, global = 2.179421e-08, cumulative = -0.8117175
DILUPBiCGStab:  Solving for epsilon, Initial residual = 0.02653544, Final residual = 4.188664e-07, No Iterations 4
DILUPBiCGStab:  Solving for k, Initial residual = 0.02779688, Final residual = 9.284909e-07, No Iterations 5

Solving for solid region solid
DICPCG:  Solving for h, Initial residual = 0.06135937, Final residual = 1.562045e-09, No Iterations 2
Min/max T:300 300.0504

[...]

Region: air Courant Number mean: 8.034931 max: 15.05453
Region: solid Diffusion Number mean: 0.0003121185 max: 0.001263164
Region: floor Diffusion Number mean: 0.0001096491 max: 0.0004385987
deltaT = 8.77193
Time = 17903.5


Solving for fluid region air
diagonal:  Solving for rho, Initial residual = 0, Final residual = 0, No Iterations 0
DILUPBiCGStab:  Solving for h, Initial residual = 0.002088546, Final residual = 3.241395e-07, No Iterations 3
Min/max T:300 300.8351
DICPCG:  Solving for p_rgh, Initial residual = 0.01899055, Final residual = 0.0007742762, No Iterations 2
diagonal:  Solving for rho, Initial residual = 0, Final residual = 0, No Iterations 0
time step continuity errors (air): sum local = 0.0002471681, global = 3.803481e-05, cumulative = -0.7584485
DICPCG:  Solving for p_rgh, Initial residual = 0.006636834, Final residual = 9.968055e-08, No Iterations 38
diagonal:  Solving for rho, Initial residual = 0, Final residual = 0, No Iterations 0
time step continuity errors (air): sum local = 3.390285e-08, global = 2.140374e-09, cumulative = -0.7584485
DILUPBiCGStab:  Solving for epsilon, Initial residual = 0.0193638, Final residual = 3.294379e-07, No Iterations 3
DILUPBiCGStab:  Solving for k, Initial residual = 0.01520943, Final residual = 9.227908e-07, No Iterations 3

Solving for solid region solid
DICPCG:  Solving for h, Initial residual = 7.567904e-05, Final residual = 1.179386e-08, No Iterations 1
Min/max T:300 300.8346

Solving for solid region floor
DICPCG:  Solving for h, Initial residual = 0.02623764, Final residual = 8.146796e-07, No Iterations 1
Min/max T:300.3315 304.9708
ExecutionTime = 138.66 s  ClockTime = 141 s

Region: air Courant Number mean: 8.035027 max: 15.05562
Region: solid Diffusion Number mean: 0.0003121185 max: 0.001263164
Region: floor Diffusion Number mean: 0.0001096491 max: 0.0004385987
deltaT = 8.77193
Time = 17912.3


Solving for fluid region air
diagonal:  Solving for rho, Initial residual = 0, Final residual = 0, No Iterations 0
DILUPBiCGStab:  Solving for h, Initial residual = 0.002042826, Final residual = 4.840719e-07, No Iterations 3
Min/max T:300 300.8348
DICPCG:  Solving for p_rgh, Initial residual = 0.0186743, Final residual = 0.0007943041, No Iterations 2
diagonal:  Solving for rho, Initial residual = 0, Final residual = 0, No Iterations 0
time step continuity errors (air): sum local = 0.0002534456, global = 9.871082e-06, cumulative = -0.7584386
DICPCG:  Solving for p_rgh, Initial residual = 0.006643801, Final residual = 8.39987e-08, No Iterations 41
diagonal:  Solving for rho, Initial residual = 0, Final residual = 0, No Iterations 0
time step continuity errors (air): sum local = 2.967103e-08, global = 2.66243e-09, cumulative = -0.7584386
DILUPBiCGStab:  Solving for epsilon, Initial residual = 0.01982994, Final residual = 2.243377e-07, No Iterations 3
DILUPBiCGStab:  Solving for k, Initial residual = 0.01559207, Final residual = 1.280367e-07, No Iterations 4

Solving for solid region solid
DICPCG:  Solving for h, Initial residual = 7.575023e-05, Final residual = 1.18021e-08, No Iterations 1
Min/max T:300 300.8343

Solving for solid region floor
DICPCG:  Solving for h, Initial residual = 0.02622253, Final residual = 8.142194e-07, No Iterations 1
Min/max T:300.3318 304.9713
ExecutionTime = 138.73 s  ClockTime = 141 s

Region: air Courant Number mean: 8.034913 max: 15.05724
Region: solid Diffusion Number mean: 0.0003121185 max: 0.001263164
Region: floor Diffusion Number mean: 0.0001096491 max: 0.0004385987
deltaT = 8.77193
Time = 17921.1


Solving for fluid region air
diagonal:  Solving for rho, Initial residual = 0, Final residual = 0, No Iterations 0
DILUPBiCGStab:  Solving for h, Initial residual = 0.0021029, Final residual = 3.583526e-07, No Iterations 3
Min/max T:300 300.8345
DICPCG:  Solving for p_rgh, Initial residual = 0.01918336, Final residual = 0.0007793277, No Iterations 2
diagonal:  Solving for rho, Initial residual = 0, Final residual = 0, No Iterations 0
time step continuity errors (air): sum local = 0.0002487351, global = 2.185247e-05, cumulative = -0.7584167
DICPCG:  Solving for p_rgh, Initial residual = 0.006676426, Final residual = 8.751514e-08, No Iterations 37
diagonal:  Solving for rho, Initial residual = 0, Final residual = 0, No Iterations 0
time step continuity errors (air): sum local = 3.011571e-08, global = 6.121075e-10, cumulative = -0.7584167
DILUPBiCGStab:  Solving for epsilon, Initial residual = 0.02047594, Final residual = 2.637616e-07, No Iterations 3
DILUPBiCGStab:  Solving for k, Initial residual = 0.0159767, Final residual = 5.762594e-07, No Iterations 3

Solving for solid region solid
DICPCG:  Solving for h, Initial residual = 7.582351e-05, Final residual = 1.181038e-08, No Iterations 1
Min/max T:300 300.834

Solving for solid region floor
DICPCG:  Solving for h, Initial residual = 0.02620744, Final residual = 8.137599e-07, No Iterations 1
Min/max T:300.332 304.9718
ExecutionTime = 138.79 s  ClockTime = 141 s

Region: air Courant Number mean: 8.034938 max: 15.0587
Region: solid Diffusion Number mean: 0.0003121185 max: 0.001263164
Region: floor Diffusion Number mean: 0.0001096491 max: 0.0004385987
deltaT = 8.77193
Time = 17929.8


Solving for fluid region air
diagonal:  Solving for rho, Initial residual = 0, Final residual = 0, No Iterations 0
DILUPBiCGStab:  Solving for h, Initial residual = 0.002156247, Final residual = 8.24432e-07, No Iterations 3
Min/max T:300 300.8342
DICPCG:  Solving for p_rgh, Initial residual = 0.01946724, Final residual = 0.0006425983, No Iterations 2
diagonal:  Solving for rho, Initial residual = 0, Final residual = 0, No Iterations 0
time step continuity errors (air): sum local = 0.0002048832, global = 3.627467e-05, cumulative = -0.7583805
DICPCG:  Solving for p_rgh, Initial residual = 0.006685496, Final residual = 8.427198e-08, No Iterations 40
diagonal:  Solving for rho, Initial residual = 0, Final residual = 0, No Iterations 0
time step continuity errors (air): sum local = 2.895501e-08, global = -7.82559e-10, cumulative = -0.7583805
DILUPBiCGStab:  Solving for epsilon, Initial residual = 0.01992419, Final residual = 2.747959e-07, No Iterations 3
DILUPBiCGStab:  Solving for k, Initial residual = 0.01554354, Final residual = 9.73551e-07, No Iterations 3

Solving for solid region solid
DICPCG:  Solving for h, Initial residual = 7.590813e-05, Final residual = 1.181931e-08, No Iterations 1
Min/max T:300 300.8337

Solving for solid region floor
DICPCG:  Solving for h, Initial residual = 0.02619236, Final residual = 8.13301e-07, No Iterations 1
Min/max T:300.3323 304.9723
ExecutionTime = 138.85 s  ClockTime = 141 s

Region: air Courant Number mean: 8.034887 max: 15.05981
Region: solid Diffusion Number mean: 0.0003121185 max: 0.001263164
Region: floor Diffusion Number mean: 0.0001096491 max: 0.0004385987
deltaT = 8.77193
Time = 17938.6


Solving for fluid region air
diagonal:  Solving for rho, Initial residual = 0, Final residual = 0, No Iterations 0
DILUPBiCGStab:  Solving for h, Initial residual = 0.002095755, Final residual = 2.89878e-07, No Iterations 3
Min/max T:300 300.8339
DICPCG:  Solving for p_rgh, Initial residual = 0.01905288, Final residual = 0.0007454897, No Iterations 2
diagonal:  Solving for rho, Initial residual = 0, Final residual = 0, No Iterations 0
time step continuity errors (air): sum local = 0.0002379597, global = 3.515878e-05, cumulative = -0.7583453
DICPCG:  Solving for p_rgh, Initial residual = 0.006665341, Final residual = 8.320449e-08, No Iterations 38
diagonal:  Solving for rho, Initial residual = 0, Final residual = 0, No Iterations 0
time step continuity errors (air): sum local = 2.86121e-08, global = -2.952412e-09, cumulative = -0.7583453
DILUPBiCGStab:  Solving for epsilon, Initial residual = 0.01971099, Final residual = 3.139223e-07, No Iterations 3
DILUPBiCGStab:  Solving for k, Initial residual = 0.0154569, Final residual = 8.245232e-07, No Iterations 3

Solving for solid region solid
DICPCG:  Solving for h, Initial residual = 7.599484e-05, Final residual = 1.182845e-08, No Iterations 1
Min/max T:300 300.8334

Solving for solid region floor
DICPCG:  Solving for h, Initial residual = 0.02617731, Final residual = 8.128427e-07, No Iterations 1
Min/max T:300.3325 304.9728
ExecutionTime = 138.92 s  ClockTime = 141 s

Region: air Courant Number mean: 8.034958 max: 15.06023
Region: solid Diffusion Number mean: 0.0003121185 max: 0.001263164
Region: floor Diffusion Number mean: 0.0001096491 max: 0.0004385987
deltaT = 8.77193
Time = 17947.4


Solving for fluid region air
diagonal:  Solving for rho, Initial residual = 0, Final residual = 0, No Iterations 0
DILUPBiCGStab:  Solving for h, Initial residual = 0.002091311, Final residual = 3.166854e-07, No Iterations 3
Min/max T:300 300.8337
DICPCG:  Solving for p_rgh, Initial residual = 0.01886226, Final residual = 0.0007965851, No Iterations 2
diagonal:  Solving for rho, Initial residual = 0, Final residual = 0, No Iterations 0
time step continuity errors (air): sum local = 0.0002541536, global = 1.021191e-05, cumulative = -0.7583351
DICPCG:  Solving for p_rgh, Initial residual = 0.006723284, Final residual = 9.059969e-08, No Iterations 41
diagonal:  Solving for rho, Initial residual = 0, Final residual = 0, No Iterations 0
time step continuity errors (air): sum local = 3.145011e-08, global = 2.972261e-09, cumulative = -0.7583351
DILUPBiCGStab:  Solving for epsilon, Initial residual = 0.0197972, Final residual = 3.428602e-07, No Iterations 3
DILUPBiCGStab:  Solving for k, Initial residual = 0.01558942, Final residual = 1.738583e-07, No Iterations 4

Solving for solid region solid
DICPCG:  Solving for h, Initial residual = 7.608136e-05, Final residual = 1.183761e-08, No Iterations 1
Min/max T:300 300.8331

Solving for solid region floor
DICPCG:  Solving for h, Initial residual = 0.02616228, Final residual = 8.12385e-07, No Iterations 1
Min/max T:300.3328 304.9733
ExecutionTime = 138.99 s  ClockTime = 142 s

Region: air Courant Number mean: 8.034807 max: 15.05995
Region: solid Diffusion Number mean: 0.0003121185 max: 0.001263164
Region: floor Diffusion Number mean: 0.0001096491 max: 0.0004385987
deltaT = 8.77193
Time = 17956.1


Solving for fluid region air
diagonal:  Solving for rho, Initial residual = 0, Final residual = 0, No Iterations 0
DILUPBiCGStab:  Solving for h, Initial residual = 0.002118416, Final residual = 9.768101e-07, No Iterations 3
Min/max T:300 300.8334
DICPCG:  Solving for p_rgh, Initial residual = 0.01918411, Final residual = 0.000806085, No Iterations 2
diagonal:  Solving for rho, Initial residual = 0, Final residual = 0, No Iterations 0
time step continuity errors (air): sum local = 0.0002572672, global = 2.550625e-05, cumulative = -0.7583096
DICPCG:  Solving for p_rgh, Initial residual = 0.006680963, Final residual = 9.006671e-08, No Iterations 38
diagonal:  Solving for rho, Initial residual = 0, Final residual = 0, No Iterations 0
time step continuity errors (air): sum local = 3.092172e-08, global = -3.991811e-09, cumulative = -0.7583096
DILUPBiCGStab:  Solving for epsilon, Initial residual = 0.0203341, Final residual = 3.022093e-07, No Iterations 3
DILUPBiCGStab:  Solving for k, Initial residual = 0.01596208, Final residual = 6.768594e-07, No Iterations 3

Solving for solid region solid
DICPCG:  Solving for h, Initial residual = 7.616767e-05, Final residual = 1.184868e-08, No Iterations 1
Min/max T:300 300.8328

Solving for solid region floor
DICPCG:  Solving for h, Initial residual = 0.02614727, Final residual = 8.11928e-07, No Iterations 1
Min/max T:300.333 304.9738
ExecutionTime = 139.05 s  ClockTime = 142 s

Region: air Courant Number mean: 8.034836 max: 15.05921
Region: solid Diffusion Number mean: 0.0003121185 max: 0.001263164
Region: floor Diffusion Number mean: 0.0001096491 max: 0.0004385987
deltaT = 8.77193
Time = 17964.9


Solving for fluid region air
diagonal:  Solving for rho, Initial residual = 0, Final residual = 0, No Iterations 0
DILUPBiCGStab:  Solving for h, Initial residual = 0.002150059, Final residual = 5.982287e-07, No Iterations 3
Min/max T:300 300.8331
DICPCG:  Solving for p_rgh, Initial residual = 0.01943193, Final residual = 0.0007286492, No Iterations 2
diagonal:  Solving for rho, Initial residual = 0, Final residual = 0, No Iterations 0
time step continuity errors (air): sum local = 0.0002323782, global = 3.017511e-05, cumulative = -0.7582794
DICPCG:  Solving for p_rgh, Initial residual = 0.006668453, Final residual = 9.969966e-08, No Iterations 37
diagonal:  Solving for rho, Initial residual = 0, Final residual = 0, No Iterations 0
time step continuity errors (air): sum local = 3.340626e-08, global = -2.163291e-09, cumulative = -0.7582794
DILUPBiCGStab:  Solving for epsilon, Initial residual = 0.01988643, Final residual = 2.814079e-07, No Iterations 3
DILUPBiCGStab:  Solving for k, Initial residual = 0.01558615, Final residual = 1.485127e-07, No Iterations 4

Solving for solid region solid
DICPCG:  Solving for h, Initial residual = 7.62538e-05, Final residual = 1.186024e-08, No Iterations 1
Min/max T:300 300.8325

Solving for solid region floor
DICPCG:  Solving for h, Initial residual = 0.02613228, Final residual = 8.114716e-07, No Iterations 1
Min/max T:300.3332 304.9743
ExecutionTime = 139.11 s  ClockTime = 142 s

Region: air Courant Number mean: 8.034813 max: 15.05865
Region: solid Diffusion Number mean: 0.0003121185 max: 0.001263164
Region: floor Diffusion Number mean: 0.0001096491 max: 0.0004385987
deltaT = 8.77193
Time = 17973.7


Solving for fluid region air
diagonal:  Solving for rho, Initial residual = 0, Final residual = 0, No Iterations 0
DILUPBiCGStab:  Solving for h, Initial residual = 0.00210023, Final residual = 2.868097e-07, No Iterations 3
Min/max T:300 300.8328
DICPCG:  Solving for p_rgh, Initial residual = 0.01912577, Final residual = 0.0007615009, No Iterations 2
diagonal:  Solving for rho, Initial residual = 0, Final residual = 0, No Iterations 0
time step continuity errors (air): sum local = 0.0002430497, global = 3.927897e-05, cumulative = -0.7582401
DICPCG:  Solving for p_rgh, Initial residual = 0.006619821, Final residual = 9.508495e-08, No Iterations 39
diagonal:  Solving for rho, Initial residual = 0, Final residual = 0, No Iterations 0
time step continuity errors (air): sum local = 3.222651e-08, global = -4.174806e-09, cumulative = -0.7582401
DILUPBiCGStab:  Solving for epsilon, Initial residual = 0.01959136, Final residual = 3.263729e-07, No Iterations 3
DILUPBiCGStab:  Solving for k, Initial residual = 0.01542807, Final residual = 9.961951e-07, No Iterations 3

Solving for solid region solid
DICPCG:  Solving for h, Initial residual = 7.633972e-05, Final residual = 1.187248e-08, No Iterations 1
Min/max T:300 300.8322

Solving for solid region floor
DICPCG:  Solving for h, Initial residual = 0.02611731, Final residual = 8.110158e-07, No Iterations 1
Min/max T:300.3335 304.9748
ExecutionTime = 139.17 s  ClockTime = 142 s

Region: air Courant Number mean: 8.034915 max: 15.05816
Region: solid Diffusion Number mean: 0.0003121185 max: 0.001263164
Region: floor Diffusion Number mean: 0.0001096491 max: 0.0004385987
deltaT = 8.77193
Time = 17982.5


Solving for fluid region air
diagonal:  Solving for rho, Initial residual = 0, Final residual = 0, No Iterations 0
DILUPBiCGStab:  Solving for h, Initial residual = 0.002071583, Final residual = 5.328346e-07, No Iterations 3
Min/max T:300 300.8325
DICPCG:  Solving for p_rgh, Initial residual = 0.01885552, Final residual = 0.0007719386, No Iterations 2
diagonal:  Solving for rho, Initial residual = 0, Final residual = 0, No Iterations 0
time step continuity errors (air): sum local = 0.0002463451, global = 7.386878e-06, cumulative = -0.7582328
DICPCG:  Solving for p_rgh, Initial residual = 0.006659709, Final residual = 8.874134e-08, No Iterations 41
diagonal:  Solving for rho, Initial residual = 0, Final residual = 0, No Iterations 0
time step continuity errors (air): sum local = 3.077329e-08, global = 1.945786e-09, cumulative = -0.7582328
DILUPBiCGStab:  Solving for epsilon, Initial residual = 0.02004675, Final residual = 2.306252e-07, No Iterations 3
DILUPBiCGStab:  Solving for k, Initial residual = 0.0157774, Final residual = 1.327442e-07, No Iterations 4

Solving for solid region solid
DICPCG:  Solving for h, Initial residual = 7.642571e-05, Final residual = 1.188613e-08, No Iterations 1
Min/max T:300 300.8319

Solving for solid region floor
DICPCG:  Solving for h, Initial residual = 0.02610236, Final residual = 8.105607e-07, No Iterations 1
Min/max T:300.3337 304.9753
ExecutionTime = 139.24 s  ClockTime = 142 s

Region: air Courant Number mean: 8.034814 max: 15.05731
Region: solid Diffusion Number mean: 0.0003121185 max: 0.001263164
Region: floor Diffusion Number mean: 0.0001096491 max: 0.0004385987
deltaT = 8.77193
Time = 17991.2


Solving for fluid region air
diagonal:  Solving for rho, Initial residual = 0, Final residual = 0, No Iterations 0
DILUPBiCGStab:  Solving for h, Initial residual = 0.002133323, Final residual = 4.03728e-07, No Iterations 3
Min/max T:300 300.8322
DICPCG:  Solving for p_rgh, Initial residual = 0.01937211, Final residual = 0.0007785319, No Iterations 2
diagonal:  Solving for rho, Initial residual = 0, Final residual = 0, No Iterations 0
time step continuity errors (air): sum local = 0.0002484424, global = 2.548107e-05, cumulative = -0.7582073
DICPCG:  Solving for p_rgh, Initial residual = 0.006718101, Final residual = 8.549014e-08, No Iterations 37
diagonal:  Solving for rho, Initial residual = 0, Final residual = 0, No Iterations 0
time step continuity errors (air): sum local = 2.969606e-08, global = -4.703705e-09, cumulative = -0.7582073
DILUPBiCGStab:  Solving for epsilon, Initial residual = 0.02060241, Final residual = 2.79663e-07, No Iterations 3
DILUPBiCGStab:  Solving for k, Initial residual = 0.01611083, Final residual = 6.212851e-07, No Iterations 3

Solving for solid region solid
DICPCG:  Solving for h, Initial residual = 7.651175e-05, Final residual = 1.189979e-08, No Iterations 1
Min/max T:300 300.8316

Solving for solid region floor
DICPCG:  Solving for h, Initial residual = 0.02608743, Final residual = 8.101062e-07, No Iterations 1
Min/max T:300.334 304.9758
ExecutionTime = 139.3 s  ClockTime = 142 s

Region: air Courant Number mean: 8.03487 max: 15.0559
Region: solid Diffusion Number mean: 0.0003121185 max: 0.001263164
Region: floor Diffusion Number mean: 0.0001096491 max: 0.0004385987
deltaT = 8.77193
Time = 18000


Solving for fluid region air
diagonal:  Solving for rho, Initial residual = 0, Final residual = 0, No Iterations 0
DILUPBiCGStab:  Solving for h, Initial residual = 0.002172949, Final residual = 6.919424e-07, No Iterations 3
Min/max T:300 300.8319
DICPCG:  Solving for p_rgh, Initial residual = 0.01959119, Final residual = 0.0006688755, No Iterations 2
diagonal:  Solving for rho, Initial residual = 0, Final residual = 0, No Iterations 0
time step continuity errors (air): sum local = 0.0002132841, global = 3.122278e-05, cumulative = -0.7581761
DICPCG:  Solving for p_rgh, Initial residual = 0.00671049, Final residual = 8.515192e-08, No Iterations 37
diagonal:  Solving for rho, Initial residual = 0, Final residual = 0, No Iterations 0
time step continuity errors (air): sum local = 2.90708e-08, global = -1.007145e-10, cumulative = -0.7581761
DILUPBiCGStab:  Solving for epsilon, Initial residual = 0.02008649, Final residual = 2.691962e-07, No Iterations 3
DILUPBiCGStab:  Solving for k, Initial residual = 0.01567152, Final residual = 9.951547e-07, No Iterations 3

Solving for solid region solid
DICPCG:  Solving for h, Initial residual = 7.659759e-05, Final residual = 1.191344e-08, No Iterations 1
Min/max T:300 300.8313

Solving for solid region floor
DICPCG:  Solving for h, Initial residual = 0.02607253, Final residual = 8.096523e-07, No Iterations 1
Min/max T:300.3342 304.9763
ExecutionTime = 139.46 s  ClockTime = 142 s

End

Finalising parallel run
