/*---------------------------------------------------------------------------*\
| =========                 |                                                 |
| \\      /  F ield         | OpenFOAM: The Open Source CFD Toolbox           |
|  \\    /   O peration     | Version:  v1712                                 |
|   \\  /    A nd           | Web:      www.OpenFOAM.com                      |
|    \\/     M anipulation  |                                                 |
\*---------------------------------------------------------------------------*/
Build  : v1712
Arch   : "LSB;label=32;scalar=64"
Exec   : twoPhaseEulerFoam
Date   : Jan 05 2018
Time   : 00:11:23
Host   : "inabower-PC"
PID    : 11276
I/O    : uncollated
Case   : /media/inabower/3C9455F89455B55C/inabower/tutorials-v1712/multiphase/twoPhaseEulerFoam/laminar/injection
nProcs : 1
trapFpe: Floating point exception trapping enabled (FOAM_SIGFPE).
fileModificationChecking : Monitoring run-time modified files using timeStampMaster (fileModificationSkew 10)
allowSystemOperations : Allowing user-supplied system call operations

// * * * * * * * * * * * * * * * * * * * * * * * * * * * * * * * * * * * * * //
Create time

Create mesh for time = 0


PIMPLE: no residual control data found. Calculations will employ 3 corrector loops


Reading g

Reading hRef
Creating twoPhaseSystem

Selecting thermodynamics package 
{
    type            heRhoThermo;
    mixture         pureMixture;
    transport       const;
    thermo          hConst;
    equationOfState perfectGas;
    specie          specie;
    energy          sensibleInternalEnergy;
}

Calculating face flux field phi.air
Selecting diameterModel for phase air: isothermal
Selecting turbulence model type laminar
Selecting laminar stress model Stokes
Selecting thermodynamics package 
{
    type            heRhoThermo;
    mixture         pureMixture;
    transport       const;
    thermo          hConst;
    equationOfState perfectFluid;
    specie          specie;
    energy          sensibleInternalEnergy;
}

Calculating face flux field phi.water
Selecting diameterModel for phase water: constant
Selecting turbulence model type laminar
Selecting laminar stress model Stokes
Selecting default blending method: linear
Selecting aspectRatioModel for (air in water): constant
Selecting aspectRatioModel for (water in air): constant
Selecting dragModel for (air and water): segregated
Selecting swarmCorrection for (air and water): none
Selecting dragModel for (air in water): SchillerNaumann
Selecting swarmCorrection for (air in water): none
Selecting dragModel for (water in air): SchillerNaumann
Selecting swarmCorrection for (water in air): none
Selecting virtualMassModel for (air in water): constantCoefficient
Selecting virtualMassModel for (water in air): constantCoefficient
Selecting heatTransferModel for (air in water): RanzMarshall
Selecting heatTransferModel for (water in air): RanzMarshall
Calculating field g.h

Reading field p_rgh

Creating field dpdt

Creating field kinetic energy K

No MRF models present

Creating finite volume options from "constant/fvOptions"

Selecting finite volume options type scalarSemiImplicitSource
    Source: massSource1
    - selecting cells using points
    - selected 1 cell(s) with volume 8e-06
Selecting finite volume options type vectorSemiImplicitSource
    Source: momentumSource1
    - selecting cells using points
    - selected 1 cell(s) with volume 8e-06
Selecting finite volume options type scalarSemiImplicitSource
    Source: energySource1
    - selecting cells using points
    - selected 1 cell(s) with volume 8e-06
Courant Number mean: 0 max: 0
Max Ur Courant Number = 0
Calculating field DDtU1 and DDtU2


Starting time loop

Courant Number mean: 0 max: 0
Max Ur Courant Number = 0
Time = 0.005

PIMPLE: iteration 1
MULES: Solving for alpha.air
MULES: Solving for alpha.air
alpha.air volume fraction = 0.293333  Min(alpha.air) = 0  Max(alpha.air) = 1
Constructing momentum equations
smoothSolver:  Solving for e.air, Initial residual = 0.00216216, Final residual = 0.00169059, No Iterations 1000
smoothSolver:  Solving for e.water, Initial residual = 0.00402093, Final residual = 0.00367231, No Iterations 1000
min T.air 300
min T.water 300
GAMG:  Solving for p_rgh, Initial residual = 1.27106e-05, Final residual = 9.9537e-09, No Iterations 15
PIMPLE: iteration 2
MULES: Solving for alpha.air
MULES: Solving for alpha.air
alpha.air volume fraction = 0.293336  Min(alpha.air) = 0  Max(alpha.air) = 1
Constructing momentum equations
smoothSolver:  Solving for e.air, Initial residual = 1, Final residual = 3.57679e-10, No Iterations 2
smoothSolver:  Solving for e.water, Initial residual = 0.999999, Final residual = 9.01911e-08, No Iterations 1000
min T.air 300
min T.water 300
GAMG:  Solving for p_rgh, Initial residual = 0.000173868, Final residual = 9.8959e-09, No Iterations 9
PIMPLE: iteration 3
MULES: Solving for alpha.air
MULES: Solving for alpha.air
alpha.air volume fraction = 0.293336  Min(alpha.air) = 0  Max(alpha.air) = 1
Constructing momentum equations
smoothSolver:  Solving for e.air, Initial residual = 0.295756, Final residual = 9.07015e-11, No Iterations 2
smoothSolver:  Solving for e.water, Initial residual = 0.115654, Final residual = 3.53969e-08, No Iterations 1000
min T.air 300
min T.water 300
GAMG:  Solving for p_rgh, Initial residual = 0.000183844, Final residual = 8.09986e-09, No Iterations 10
ExecutionTime = 0.24 s


Courant Number mean: 0.0002109 max: 0.000484746
Max Ur Courant Number = 1.30834
Time = 0.01

PIMPLE: iteration 1
MULES: Solving for alpha.air
MULES: Solving for alpha.air
alpha.air volume fraction = 0.293338  Min(alpha.air) = 0  Max(alpha.air) = 1
Constructing momentum equations
smoothSolver:  Solving for e.air, Initial residual = 0.486983, Final residual = 1.55979e-10, No Iterations 2
smoothSolver:  Solving for e.water, Initial residual = 0.000286215, Final residual = 2.45458e-11, No Iterations 1
min T.air 300
min T.water 300
GAMG:  Solving for p_rgh, Initial residual = 4.31884e-05, Final residual = 9.29197e-09, No Iterations 8
PIMPLE: iteration 2
MULES: Solving for alpha.air
MULES: Solving for alpha.air
alpha.air volume fraction = 0.293336  Min(alpha.air) = 0  Max(alpha.air) = 1
Constructing momentum equations
smoothSolver:  Solving for e.air, Initial residual = 0.775471, Final residual = 2.50328e-10, No Iterations 2
smoothSolver:  Solving for e.water, Initial residual = 0.000446835, Final residual = 3.91644e-11, No Iterations 1
min T.air 300
min T.water 300
GAMG:  Solving for p_rgh, Initial residual = 1.4999e-05, Final residual = 7.34301e-09, No Iterations 6
PIMPLE: iteration 3
MULES: Solving for alpha.air
MULES: Solving for alpha.air
alpha.air volume fraction = 0.293336  Min(alpha.air) = -3.21413e-41  Max(alpha.air) = 1
Constructing momentum equations
smoothSolver:  Solving for e.air, Initial residual = 0.460764, Final residual = 1.50874e-10, No Iterations 2
smoothSolver:  Solving for e.water, Initial residual = 2.94431e-05, Final residual = 1.80092e-11, No Iterations 1
min T.air 300
min T.water 300
GAMG:  Solving for p_rgh, Initial residual = 3.49326e-06, Final residual = 4.81365e-09, No Iterations 5
ExecutionTime = 0.27 s


Courant Number mean: 6.21231e-06 max: 0.000162753
Max Ur Courant Number = 0.0869651
Time = 0.015

PIMPLE: iteration 1
MULES: Solving for alpha.air
MULES: Solving for alpha.air
alpha.air volume fraction = 0.293336  Min(alpha.air) = 0  Max(alpha.air) = 1
Constructing momentum equations
smoothSolver:  Solving for e.air, Initial residual = 0.129798, Final residual = 4.42778e-11, No Iterations 2
smoothSolver:  Solving for e.water, Initial residual = 7.05238e-05, Final residual = 6.5841e-11, No Iterations 1
min T.air 300
min T.water 300
GAMG:  Solving for p_rgh, Initial residual = 2.32758e-05, Final residual = 8.51503e-09, No Iterations 8
PIMPLE: iteration 2
MULES: Solving for alpha.air
MULES: Solving for alpha.air
alpha.air volume fraction = 0.293336  Min(alpha.air) = -2.57567e-52  Max(alpha.air) = 1
Constructing momentum equations
smoothSolver:  Solving for e.air, Initial residual = 0.151471, Final residual = 4.87189e-11, No Iterations 2
smoothSolver:  Solving for e.water, Initial residual = 1.09485e-05, Final residual = 2.47257e-11, No Iterations 1
min T.air 300
min T.water 300
GAMG:  Solving for p_rgh, Initial residual = 2.09991e-06, Final residual = 7.00686e-09, No Iterations 5
PIMPLE: iteration 3
MULES: Solving for alpha.air
MULES: Solving for alpha.air
alpha.air volume fraction = 0.293336  Min(alpha.air) = -2.00457e-53  Max(alpha.air) = 1
Constructing momentum equations
smoothSolver:  Solving for e.air, Initial residual = 0.138626, Final residual = 4.3103e-11, No Iterations 2
smoothSolver:  Solving for e.water, Initial residual = 1.17263e-05, Final residual = 3.00428e-11, No Iterations 1
min T.air 300
min T.water 300
GAMG:  Solving for p_rgh, Initial residual = 5.41037e-07, Final residual = 7.42724e-09, No Iterations 3
ExecutionTime = 0.3 s


Courant Number mean: 6.28878e-06 max: 0.000131646
Max Ur Courant Number = 0.388777
Time = 0.02

PIMPLE: iteration 1
MULES: Solving for alpha.air
MULES: Solving for alpha.air
alpha.air volume fraction = 0.293336  Min(alpha.air) = 0  Max(alpha.air) = 1
Constructing momentum equations
smoothSolver:  Solving for e.air, Initial residual = 0.0809287, Final residual = 2.62973e-11, No Iterations 2
smoothSolver:  Solving for e.water, Initial residual = 2.19315e-05, Final residual = 2.55154e-11, No Iterations 1
min T.air 300
min T.water 300
GAMG:  Solving for p_rgh, Initial residual = 5.29684e-06, Final residual = 5.85575e-09, No Iterations 7
PIMPLE: iteration 2
MULES: Solving for alpha.air
MULES: Solving for alpha.air
alpha.air volume fraction = 0.293336  Min(alpha.air) = -1.10223e-56  Max(alpha.air) = 1
Constructing momentum equations
smoothSolver:  Solving for e.air, Initial residual = 0.114731, Final residual = 3.65157e-11, No Iterations 2
smoothSolver:  Solving for e.water, Initial residual = 2.48145e-05, Final residual = 3.01437e-11, No Iterations 1
min T.air 300
min T.water 300
GAMG:  Solving for p_rgh, Initial residual = 1.96744e-07, Final residual = 3.91996e-09, No Iterations 5
PIMPLE: iteration 3
MULES: Solving for alpha.air
MULES: Solving for alpha.air
alpha.air volume fraction = 0.293336  Min(alpha.air) = -1.18062e-62  Max(alpha.air) = 1
Constructing momentum equations
smoothSolver:  Solving for e.air, Initial residual = 0.0785518, Final residual = 2.50789e-11, No Iterations 2
smoothSolver:  Solving for e.water, Initial residual = 1.0761e-05, Final residual = 2.60433e-11, No Iterations 1
min T.air 300
min T.water 300
GAMG:  Solving for p_rgh, Initial residual = 1.00191e-06, Final residual = 5.77804e-09, No Iterations 3
ExecutionTime = 0.33 s


Courant Number mean: 6.9897e-06 max: 0.000177841
Max Ur Courant Number = 0.0997673
Time = 0.025

PIMPLE: iteration 1
MULES: Solving for alpha.air
MULES: Solving for alpha.air
alpha.air volume fraction = 0.293336  Min(alpha.air) = -2.26392e-74  Max(alpha.air) = 1
Constructing momentum equations
smoothSolver:  Solving for e.air, Initial residual = 0.0472653, Final residual = 1.71636e-11, No Iterations 2
smoothSolver:  Solving for e.water, Initial residual = 3.73056e-05, Final residual = 2.92226e-11, No Iterations 1
min T.air 300
min T.water 300
GAMG:  Solving for p_rgh, Initial residual = 9.08617e-06, Final residual = 1.68738e-09, No Iterations 6
PIMPLE: iteration 2
MULES: Solving for alpha.air
MULES: Solving for alpha.air
alpha.air volume fraction = 0.293336  Min(alpha.air) = -2.0352e-65  Max(alpha.air) = 1
Constructing momentum equations
smoothSolver:  Solving for e.air, Initial residual = 0.055225, Final residual = 1.80956e-11, No Iterations 2
smoothSolver:  Solving for e.water, Initial residual = 5.09185e-05, Final residual = 4.4159e-11, No Iterations 1
min T.air 300
min T.water 300
GAMG:  Solving for p_rgh, Initial residual = 1.00401e-06, Final residual = 8.20662e-09, No Iterations 5
PIMPLE: iteration 3
MULES: Solving for alpha.air
MULES: Solving for alpha.air
alpha.air volume fraction = 0.293336  Min(alpha.air) = -1.07358e-57  Max(alpha.air) = 1
Constructing momentum equations
smoothSolver:  Solving for e.air, Initial residual = 0.107665, Final residual = 3.29395e-11, No Iterations 2
smoothSolver:  Solving for e.water, Initial residual = 1.90085e-05, Final residual = 2.67906e-11, No Iterations 1
min T.air 300
min T.water 300
GAMG:  Solving for p_rgh, Initial residual = 6.56225e-07, Final residual = 9.93209e-09, No Iterations 1
ExecutionTime = 0.36 s


Courant Number mean: 1.65535e-05 max: 0.000432978
Max Ur Courant Number = 0.296372
Time = 0.03

PIMPLE: iteration 1
MULES: Solving for alpha.air
MULES: Solving for alpha.air
alpha.air volume fraction = 0.293336  Min(alpha.air) = -2.07876e-93  Max(alpha.air) = 1
Constructing momentum equations
smoothSolver:  Solving for e.air, Initial residual = 0.0567842, Final residual = 1.80384e-11, No Iterations 2
smoothSolver:  Solving for e.water, Initial residual = 5.74852e-05, Final residual = 2.47778e-11, No Iterations 1
min T.air 300
min T.water 300
GAMG:  Solving for p_rgh, Initial residual = 4.21164e-06, Final residual = 3.81626e-09, No Iterations 6
PIMPLE: iteration 2
MULES: Solving for alpha.air
MULES: Solving for alpha.air
alpha.air volume fraction = 0.293336  Min(alpha.air) = -1.28377e-55  Max(alpha.air) = 1
Constructing momentum equations
smoothSolver:  Solving for e.air, Initial residual = 0.0496828, Final residual = 1.5468e-11, No Iterations 2
smoothSolver:  Solving for e.water, Initial residual = 0.000116076, Final residual = 6.59845e-11, No Iterations 1
min T.air 300
min T.water 300
GAMG:  Solving for p_rgh, Initial residual = 1.31763e-06, Final residual = 4.22133e-09, No Iterations 5
PIMPLE: iteration 3
MULES: Solving for alpha.air
MULES: Solving for alpha.air
alpha.air volume fraction = 0.293336  Min(alpha.air) = -5.02319e-69  Max(alpha.air) = 1
Constructing momentum equations
smoothSolver:  Solving for e.air, Initial residual = 0.0617407, Final residual = 2.03257e-11, No Iterations 2
smoothSolver:  Solving for e.water, Initial residual = 8.14141e-06, Final residual = 1.79431e-11, No Iterations 1
min T.air 300
min T.water 300
GAMG:  Solving for p_rgh, Initial residual = 1.00641e-06, Final residual = 8.16087e-09, No Iterations 1
ExecutionTime = 0.38 s


Courant Number mean: 3.25008e-05 max: 0.000883603
Max Ur Courant Number = 0.111261
Time = 0.035

PIMPLE: iteration 1
MULES: Solving for alpha.air
MULES: Solving for alpha.air
alpha.air volume fraction = 0.293336  Min(alpha.air) = -8.39735e-136  Max(alpha.air) = 1
Constructing momentum equations
smoothSolver:  Solving for e.air, Initial residual = 0.0656666, Final residual = 2.5178e-11, No Iterations 2
smoothSolver:  Solving for e.water, Initial residual = 6.72183e-05, Final residual = 2.48578e-11, No Iterations 1
min T.air 300
min T.water 300
GAMG:  Solving for p_rgh, Initial residual = 6.55421e-06, Final residual = 5.01236e-09, No Iterations 4
PIMPLE: iteration 2
MULES: Solving for alpha.air
MULES: Solving for alpha.air
alpha.air volume fraction = 0.293336  Min(alpha.air) = -6.24741e-31  Max(alpha.air) = 1
Constructing momentum equations
smoothSolver:  Solving for e.air, Initial residual = 0.0321513, Final residual = 1.24941e-11, No Iterations 2
smoothSolver:  Solving for e.water, Initial residual = 0.00010698, Final residual = 7.26107e-11, No Iterations 1
min T.air 300
min T.water 300
GAMG:  Solving for p_rgh, Initial residual = 1.12818e-06, Final residual = 7.79514e-09, No Iterations 5
PIMPLE: iteration 3
MULES: Solving for alpha.air
MULES: Solving for alpha.air
alpha.air volume fraction = 0.293336  Min(alpha.air) = -1.65362e-53  Max(alpha.air) = 1
Constructing momentum equations
smoothSolver:  Solving for e.air, Initial residual = 0.0784494, Final residual = 2.3444e-11, No Iterations 2
smoothSolver:  Solving for e.water, Initial residual = 1.99478e-05, Final residual = 1.87113e-11, No Iterations 1
min T.air 300
min T.water 300
GAMG:  Solving for p_rgh, Initial residual = 5.58338e-07, Final residual = 9.33551e-09, No Iterations 1
ExecutionTime = 0.41 s


Courant Number mean: 2.39598e-05 max: 0.000887354
Max Ur Courant Number = 0.275804
Time = 0.04

PIMPLE: iteration 1
MULES: Solving for alpha.air
MULES: Solving for alpha.air
alpha.air volume fraction = 0.293336  Min(alpha.air) = 0  Max(alpha.air) = 1
Constructing momentum equations
smoothSolver:  Solving for e.air, Initial residual = 0.0514987, Final residual = 1.84229e-11, No Iterations 2
smoothSolver:  Solving for e.water, Initial residual = 6.57344e-05, Final residual = 1.94565e-11, No Iterations 1
min T.air 300
min T.water 300
GAMG:  Solving for p_rgh, Initial residual = 3.90238e-06, Final residual = 4.04848e-09, No Iterations 6
PIMPLE: iteration 2
MULES: Solving for alpha.air
MULES: Solving for alpha.air
alpha.air volume fraction = 0.293336  Min(alpha.air) = -9.47225e-90  Max(alpha.air) = 1
Constructing momentum equations
smoothSolver:  Solving for e.air, Initial residual = 0.0294969, Final residual = 1.15598e-11, No Iterations 2
smoothSolver:  Solving for e.water, Initial residual = 0.000126216, Final residual = 4.68879e-11, No Iterations 1
min T.air 300
min T.water 300
GAMG:  Solving for p_rgh, Initial residual = 8.06482e-07, Final residual = 2.63502e-09, No Iterations 5
PIMPLE: iteration 3
MULES: Solving for alpha.air
MULES: Solving for alpha.air
alpha.air volume fraction = 0.293336  Min(alpha.air) = -9.14529e-94  Max(alpha.air) = 1
Constructing momentum equations
smoothSolver:  Solving for e.air, Initial residual = 0.0411424, Final residual = 1.41366e-11, No Iterations 2
smoothSolver:  Solving for e.water, Initial residual = 6.78966e-06, Final residual = 1.50392e-11, No Iterations 1
min T.air 300
min T.water 300
GAMG:  Solving for p_rgh, Initial residual = 1.40154e-07, Final residual = 8.20827e-09, No Iterations 1
ExecutionTime = 0.44 s


Courant Number mean: 4.04421e-05 max: 0.00221786
Max Ur Courant Number = 0.118587
Time = 0.045

PIMPLE: iteration 1
MULES: Solving for alpha.air
MULES: Solving for alpha.air
alpha.air volume fraction = 0.293336  Min(alpha.air) = -5.03841e-141  Max(alpha.air) = 1
Constructing momentum equations
smoothSolver:  Solving for e.air, Initial residual = 0.0514294, Final residual = 1.89162e-11, No Iterations 2
smoothSolver:  Solving for e.water, Initial residual = 6.67185e-05, Final residual = 1.9443e-11, No Iterations 1
min T.air 300
min T.water 300
GAMG:  Solving for p_rgh, Initial residual = 5.5912e-06, Final residual = 7.25625e-09, No Iterations 3
PIMPLE: iteration 2
MULES: Solving for alpha.air
MULES: Solving for alpha.air
alpha.air volume fraction = 0.293336  Min(alpha.air) = 0  Max(alpha.air) = 1
Constructing momentum equations
smoothSolver:  Solving for e.air, Initial residual = 0.0481941, Final residual = 1.75306e-11, No Iterations 2
smoothSolver:  Solving for e.water, Initial residual = 6.51886e-05, Final residual = 3.31623e-11, No Iterations 1
min T.air 300
min T.water 300
GAMG:  Solving for p_rgh, Initial residual = 1.77848e-06, Final residual = 2.44651e-09, No Iterations 5
PIMPLE: iteration 3
MULES: Solving for alpha.air
MULES: Solving for alpha.air
alpha.air volume fraction = 0.293336  Min(alpha.air) = 0  Max(alpha.air) = 1
Constructing momentum equations
smoothSolver:  Solving for e.air, Initial residual = 0.0483389, Final residual = 1.77028e-11, No Iterations 2
smoothSolver:  Solving for e.water, Initial residual = 1.31465e-05, Final residual = 1.44909e-11, No Iterations 1
min T.air 300
min T.water 300
GAMG:  Solving for p_rgh, Initial residual = 1.28685e-06, Final residual = 8.01283e-09, No Iterations 1
ExecutionTime = 0.46 s


Courant Number mean: 5.84187e-05 max: 0.00267385
Max Ur Courant Number = 0.260594
Time = 0.05

PIMPLE: iteration 1
MULES: Solving for alpha.air
MULES: Solving for alpha.air
alpha.air volume fraction = 0.293336  Min(alpha.air) = 0  Max(alpha.air) = 1
Constructing momentum equations
smoothSolver:  Solving for e.air, Initial residual = 0.049471, Final residual = 1.9496e-11, No Iterations 2
smoothSolver:  Solving for e.water, Initial residual = 6.42057e-05, Final residual = 1.86792e-11, No Iterations 1
min T.air 300
min T.water 300
GAMG:  Solving for p_rgh, Initial residual = 4.03331e-06, Final residual = 6.69713e-09, No Iterations 5
PIMPLE: iteration 2
MULES: Solving for alpha.air
MULES: Solving for alpha.air
alpha.air volume fraction = 0.293336  Min(alpha.air) = -3.90663e-139  Max(alpha.air) = 1
Constructing momentum equations
smoothSolver:  Solving for e.air, Initial residual = 0.0519112, Final residual = 1.77186e-11, No Iterations 2
smoothSolver:  Solving for e.water, Initial residual = 7.39178e-05, Final residual = 2.57746e-11, No Iterations 1
min T.air 300
min T.water 300
GAMG:  Solving for p_rgh, Initial residual = 1.63027e-06, Final residual = 1.97368e-09, No Iterations 5
PIMPLE: iteration 3
MULES: Solving for alpha.air
MULES: Solving for alpha.air
alpha.air volume fraction = 0.293336  Min(alpha.air) = -5.43073e-99  Max(alpha.air) = 1
Constructing momentum equations
smoothSolver:  Solving for e.air, Initial residual = 0.0534876, Final residual = 1.82561e-11, No Iterations 2
smoothSolver:  Solving for e.water, Initial residual = 6.63402e-06, Final residual = 1.33053e-11, No Iterations 1
min T.air 300
min T.water 300
GAMG:  Solving for p_rgh, Initial residual = 9.10592e-07, Final residual = 7.40217e-09, No Iterations 1
ExecutionTime = 0.49 s


Courant Number mean: 6.46595e-05 max: 0.00294857
Max Ur Courant Number = 0.125163
Time = 0.055

PIMPLE: iteration 1
MULES: Solving for alpha.air
MULES: Solving for alpha.air
alpha.air volume fraction = 0.293336  Min(alpha.air) = 0  Max(alpha.air) = 1
Constructing momentum equations
smoothSolver:  Solving for e.air, Initial residual = 0.0389137, Final residual = 1.57354e-11, No Iterations 2
smoothSolver:  Solving for e.water, Initial residual = 5.70262e-05, Final residual = 1.70509e-11, No Iterations 1
min T.air 300
min T.water 300
GAMG:  Solving for p_rgh, Initial residual = 5.40912e-06, Final residual = 2.9556e-09, No Iterations 5
PIMPLE: iteration 2
MULES: Solving for alpha.air
MULES: Solving for alpha.air
alpha.air volume fraction = 0.293336  Min(alpha.air) = 0  Max(alpha.air) = 1
Constructing momentum equations
smoothSolver:  Solving for e.air, Initial residual = 0.0271294, Final residual = 8.95652e-12, No Iterations 2
smoothSolver:  Solving for e.water, Initial residual = 5.56448e-05, Final residual = 1.69528e-11, No Iterations 1
min T.air 300
min T.water 300
GAMG:  Solving for p_rgh, Initial residual = 1.65206e-06, Final residual = 2.38761e-09, No Iterations 5
PIMPLE: iteration 3
MULES: Solving for alpha.air
MULES: Solving for alpha.air
alpha.air volume fraction = 0.293336  Min(alpha.air) = 0  Max(alpha.air) = 1
Constructing momentum equations
smoothSolver:  Solving for e.air, Initial residual = 0.024427, Final residual = 9.86407e-12, No Iterations 2
smoothSolver:  Solving for e.water, Initial residual = 6.44926e-06, Final residual = 1.28316e-11, No Iterations 1
min T.air 300
min T.water 300
GAMG:  Solving for p_rgh, Initial residual = 1.31009e-06, Final residual = 8.54149e-09, No Iterations 1
ExecutionTime = 0.52 s


Courant Number mean: 6.36763e-05 max: 0.00288236
Max Ur Courant Number = 0.247277
Time = 0.06

PIMPLE: iteration 1
MULES: Solving for alpha.air
MULES: Solving for alpha.air
alpha.air volume fraction = 0.293336  Min(alpha.air) = 0  Max(alpha.air) = 1
Constructing momentum equations
smoothSolver:  Solving for e.air, Initial residual = 0.0352583, Final residual = 1.29913e-11, No Iterations 2
smoothSolver:  Solving for e.water, Initial residual = 4.2293e-05, Final residual = 1.43625e-11, No Iterations 1
min T.air 300
min T.water 300
GAMG:  Solving for p_rgh, Initial residual = 3.77096e-06, Final residual = 9.01781e-09, No Iterations 5
PIMPLE: iteration 2
MULES: Solving for alpha.air
MULES: Solving for alpha.air
alpha.air volume fraction = 0.293336  Min(alpha.air) = -7.3141e-120  Max(alpha.air) = 1
Constructing momentum equations
smoothSolver:  Solving for e.air, Initial residual = 0.0453064, Final residual = 1.51053e-11, No Iterations 2
smoothSolver:  Solving for e.water, Initial residual = 2.43363e-05, Final residual = 1.39344e-11, No Iterations 1
min T.air 300
min T.water 300
GAMG:  Solving for p_rgh, Initial residual = 1.58144e-06, Final residual = 8.33279e-09, No Iterations 3
PIMPLE: iteration 3
MULES: Solving for alpha.air
MULES: Solving for alpha.air
alpha.air volume fraction = 0.293336  Min(alpha.air) = -6.07243e-93  Max(alpha.air) = 1
Constructing momentum equations
smoothSolver:  Solving for e.air, Initial residual = 0.0585544, Final residual = 1.86653e-11, No Iterations 2
smoothSolver:  Solving for e.water, Initial residual = 4.02805e-06, Final residual = 1.2893e-11, No Iterations 1
min T.air 300
min T.water 300
GAMG:  Solving for p_rgh, Initial residual = 1.03545e-06, Final residual = 8.52216e-09, No Iterations 1
ExecutionTime = 0.55 s


Courant Number mean: 6.34661e-05 max: 0.00304825
Max Ur Courant Number = 0.131628
Time = 0.065

PIMPLE: iteration 1
MULES: Solving for alpha.air
MULES: Solving for alpha.air
alpha.air volume fraction = 0.293336  Min(alpha.air) = 0  Max(alpha.air) = 1
Constructing momentum equations
smoothSolver:  Solving for e.air, Initial residual = 0.0299661, Final residual = 1.16718e-11, No Iterations 2
smoothSolver:  Solving for e.water, Initial residual = 4.18302e-05, Final residual = 1.31712e-11, No Iterations 1
min T.air 300
min T.water 300
GAMG:  Solving for p_rgh, Initial residual = 4.61492e-06, Final residual = 9.79888e-09, No Iterations 4
PIMPLE: iteration 2
MULES: Solving for alpha.air
MULES: Solving for alpha.air
alpha.air volume fraction = 0.293336  Min(alpha.air) = 0  Max(alpha.air) = 1
Constructing momentum equations
smoothSolver:  Solving for e.air, Initial residual = 0.0287254, Final residual = 1.05983e-11, No Iterations 2
smoothSolver:  Solving for e.water, Initial residual = 1.69246e-05, Final residual = 1.35243e-11, No Iterations 1
min T.air 300
min T.water 300
GAMG:  Solving for p_rgh, Initial residual = 1.53114e-06, Final residual = 8.63714e-09, No Iterations 3
PIMPLE: iteration 3
MULES: Solving for alpha.air
MULES: Solving for alpha.air
alpha.air volume fraction = 0.293336  Min(alpha.air) = 0  Max(alpha.air) = 1
Constructing momentum equations
smoothSolver:  Solving for e.air, Initial residual = 0.0563434, Final residual = 1.93606e-11, No Iterations 2
smoothSolver:  Solving for e.water, Initial residual = 3.74402e-06, Final residual = 1.28984e-11, No Iterations 1
min T.air 300
min T.water 300
GAMG:  Solving for p_rgh, Initial residual = 1.33656e-06, Final residual = 4.82666e-09, No Iterations 2
ExecutionTime = 0.58 s


Courant Number mean: 6.47908e-05 max: 0.00327896
Max Ur Courant Number = 0.235625
Time = 0.07

PIMPLE: iteration 1
MULES: Solving for alpha.air
MULES: Solving for alpha.air
alpha.air volume fraction = 0.293336  Min(alpha.air) = 0  Max(alpha.air) = 1
Constructing momentum equations
smoothSolver:  Solving for e.air, Initial residual = 0.034675, Final residual = 1.10876e-11, No Iterations 2
smoothSolver:  Solving for e.water, Initial residual = 4.01916e-05, Final residual = 1.3383e-11, No Iterations 1
min T.air 300
min T.water 300
GAMG:  Solving for p_rgh, Initial residual = 3.60949e-06, Final residual = 8.29389e-09, No Iterations 3
PIMPLE: iteration 2
MULES: Solving for alpha.air
MULES: Solving for alpha.air
alpha.air volume fraction = 0.293336  Min(alpha.air) = -1.89696e-130  Max(alpha.air) = 1
Constructing momentum equations
smoothSolver:  Solving for e.air, Initial residual = 0.0292469, Final residual = 1.07998e-11, No Iterations 2
smoothSolver:  Solving for e.water, Initial residual = 1.47092e-05, Final residual = 1.31721e-11, No Iterations 1
min T.air 300
min T.water 300
GAMG:  Solving for p_rgh, Initial residual = 1.52756e-06, Final residual = 5.19519e-09, No Iterations 3
PIMPLE: iteration 3
MULES: Solving for alpha.air
MULES: Solving for alpha.air
alpha.air volume fraction = 0.293336  Min(alpha.air) = -6.93246e-148  Max(alpha.air) = 1
Constructing momentum equations
smoothSolver:  Solving for e.air, Initial residual = 0.0324382, Final residual = 1.24491e-11, No Iterations 2
smoothSolver:  Solving for e.water, Initial residual = 4.08226e-06, Final residual = 1.30572e-11, No Iterations 1
min T.air 300
min T.water 300
GAMG:  Solving for p_rgh, Initial residual = 1.1569e-06, Final residual = 7.06255e-09, No Iterations 1
ExecutionTime = 0.61 s


Courant Number mean: 7.25452e-05 max: 0.00364793
Max Ur Courant Number = 0.135824
Time = 0.075

PIMPLE: iteration 1
MULES: Solving for alpha.air
MULES: Solving for alpha.air
alpha.air volume fraction = 0.293336  Min(alpha.air) = 0  Max(alpha.air) = 1
Constructing momentum equations
smoothSolver:  Solving for e.air, Initial residual = 0.0204311, Final residual = 8.68793e-12, No Iterations 2
smoothSolver:  Solving for e.water, Initial residual = 4.454e-05, Final residual = 1.39125e-11, No Iterations 1
min T.air 300
min T.water 300
GAMG:  Solving for p_rgh, Initial residual = 4.10278e-06, Final residual = 5.31116e-09, No Iterations 4
PIMPLE: iteration 2
MULES: Solving for alpha.air
MULES: Solving for alpha.air
alpha.air volume fraction = 0.293336  Min(alpha.air) = 0  Max(alpha.air) = 1
Constructing momentum equations
smoothSolver:  Solving for e.air, Initial residual = 0.0213954, Final residual = 8.56866e-12, No Iterations 2
smoothSolver:  Solving for e.water, Initial residual = 1.43485e-05, Final residual = 1.34623e-11, No Iterations 1
min T.air 300
min T.water 300
GAMG:  Solving for p_rgh, Initial residual = 1.49063e-06, Final residual = 6.1223e-09, No Iterations 3
PIMPLE: iteration 3
MULES: Solving for alpha.air
MULES: Solving for alpha.air
alpha.air volume fraction = 0.293336  Min(alpha.air) = 0  Max(alpha.air) = 1
Constructing momentum equations
smoothSolver:  Solving for e.air, Initial residual = 0.0341458, Final residual = 1.25022e-11, No Iterations 2
smoothSolver:  Solving for e.water, Initial residual = 3.34282e-06, Final residual = 1.32222e-11, No Iterations 1
min T.air 300
min T.water 300
GAMG:  Solving for p_rgh, Initial residual = 9.14113e-07, Final residual = 8.10006e-09, No Iterations 1
ExecutionTime = 0.64 s


Courant Number mean: 7.91842e-05 max: 0.00403364
Max Ur Courant Number = 0.225267
Time = 0.08

PIMPLE: iteration 1
MULES: Solving for alpha.air
MULES: Solving for alpha.air
alpha.air volume fraction = 0.293336  Min(alpha.air) = 0  Max(alpha.air) = 1
Constructing momentum equations
smoothSolver:  Solving for e.air, Initial residual = 0.0181739, Final residual = 8.00185e-12, No Iterations 2
smoothSolver:  Solving for e.water, Initial residual = 4.8267e-05, Final residual = 1.44153e-11, No Iterations 1
min T.air 300
min T.water 300
GAMG:  Solving for p_rgh, Initial residual = 3.0066e-06, Final residual = 7.93431e-09, No Iterations 5
PIMPLE: iteration 2
MULES: Solving for alpha.air
MULES: Solving for alpha.air
alpha.air volume fraction = 0.293336  Min(alpha.air) = 0  Max(alpha.air) = 1
Constructing momentum equations
smoothSolver:  Solving for e.air, Initial residual = 0.0335463, Final residual = 1.18088e-11, No Iterations 2
smoothSolver:  Solving for e.water, Initial residual = 1.43913e-05, Final residual = 1.36081e-11, No Iterations 1
min T.air 300
min T.water 300
GAMG:  Solving for p_rgh, Initial residual = 1.06039e-06, Final residual = 5.33707e-09, No Iterations 3
PIMPLE: iteration 3
MULES: Solving for alpha.air
MULES: Solving for alpha.air
alpha.air volume fraction = 0.293336  Min(alpha.air) = 0  Max(alpha.air) = 1
Constructing momentum equations
smoothSolver:  Solving for e.air, Initial residual = 0.0362558, Final residual = 1.33848e-11, No Iterations 2
smoothSolver:  Solving for e.water, Initial residual = 3.33241e-06, Final residual = 1.29003e-11, No Iterations 1
min T.air 300
min T.water 300
GAMG:  Solving for p_rgh, Initial residual = 7.27719e-07, Final residual = 6.13129e-09, No Iterations 1
ExecutionTime = 0.67 s


Courant Number mean: 8.45972e-05 max: 0.0044837
Max Ur Courant Number = 0.139285
Time = 0.085

PIMPLE: iteration 1
MULES: Solving for alpha.air
MULES: Solving for alpha.air
alpha.air volume fraction = 0.293336  Min(alpha.air) = 0  Max(alpha.air) = 1
Constructing momentum equations
smoothSolver:  Solving for e.air, Initial residual = 0.0159974, Final residual = 7.19261e-12, No Iterations 2
smoothSolver:  Solving for e.water, Initial residual = 4.93791e-05, Final residual = 1.43854e-11, No Iterations 1
min T.air 300
min T.water 300
GAMG:  Solving for p_rgh, Initial residual = 3.24043e-06, Final residual = 7.28196e-09, No Iterations 4
PIMPLE: iteration 2
MULES: Solving for alpha.air
MULES: Solving for alpha.air
alpha.air volume fraction = 0.293336  Min(alpha.air) = 0  Max(alpha.air) = 1
Constructing momentum equations
smoothSolver:  Solving for e.air, Initial residual = 0.0201904, Final residual = 8.69527e-12, No Iterations 2
smoothSolver:  Solving for e.water, Initial residual = 1.40657e-05, Final residual = 1.34839e-11, No Iterations 1
min T.air 300
min T.water 300
GAMG:  Solving for p_rgh, Initial residual = 9.10142e-07, Final residual = 9.82553e-09, No Iterations 1
PIMPLE: iteration 3
MULES: Solving for alpha.air
MULES: Solving for alpha.air
alpha.air volume fraction = 0.293336  Min(alpha.air) = 0  Max(alpha.air) = 1
Constructing momentum equations
smoothSolver:  Solving for e.air, Initial residual = 0.0337288, Final residual = 1.32157e-11, No Iterations 2
smoothSolver:  Solving for e.water, Initial residual = 4.48029e-06, Final residual = 1.35731e-11, No Iterations 1
min T.air 300
min T.water 300
GAMG:  Solving for p_rgh, Initial residual = 7.6858e-07, Final residual = 7.65121e-09, No Iterations 1
ExecutionTime = 0.7 s


Courant Number mean: 9.04478e-05 max: 0.00492907
Max Ur Courant Number = 0.216017
Time = 0.09

PIMPLE: iteration 1
MULES: Solving for alpha.air
MULES: Solving for alpha.air
alpha.air volume fraction = 0.293336  Min(alpha.air) = 0  Max(alpha.air) = 1
Constructing momentum equations
smoothSolver:  Solving for e.air, Initial residual = 0.0184086, Final residual = 8.02711e-12, No Iterations 2
smoothSolver:  Solving for e.water, Initial residual = 5.10913e-05, Final residual = 1.4245e-11, No Iterations 1
min T.air 300
min T.water 300
GAMG:  Solving for p_rgh, Initial residual = 2.74955e-06, Final residual = 8.85334e-09, No Iterations 4
PIMPLE: iteration 2
MULES: Solving for alpha.air
MULES: Solving for alpha.air
alpha.air volume fraction = 0.293336  Min(alpha.air) = -8.96094e-281  Max(alpha.air) = 1
Constructing momentum equations
smoothSolver:  Solving for e.air, Initial residual = 0.0401086, Final residual = 1.36629e-11, No Iterations 2
smoothSolver:  Solving for e.water, Initial residual = 1.35716e-05, Final residual = 1.32878e-11, No Iterations 1
min T.air 300
min T.water 300
GAMG:  Solving for p_rgh, Initial residual = 9.37891e-07, Final residual = 9.92103e-09, No Iterations 1
PIMPLE: iteration 3
MULES: Solving for alpha.air
MULES: Solving for alpha.air
alpha.air volume fraction = 0.293336  Min(alpha.air) = 0  Max(alpha.air) = 1
Constructing momentum equations
smoothSolver:  Solving for e.air, Initial residual = 0.0309429, Final residual = 1.12785e-11, No Iterations 2
smoothSolver:  Solving for e.water, Initial residual = 5.49495e-06, Final residual = 1.32823e-11, No Iterations 1
min T.air 300
min T.water 300
GAMG:  Solving for p_rgh, Initial residual = 6.61725e-07, Final residual = 6.31854e-09, No Iterations 1
ExecutionTime = 0.73 s


Courant Number mean: 9.78636e-05 max: 0.00542177
Max Ur Courant Number = 0.141707
Time = 0.095

PIMPLE: iteration 1
MULES: Solving for alpha.air
MULES: Solving for alpha.air
alpha.air volume fraction = 0.293336  Min(alpha.air) = 0  Max(alpha.air) = 1
Constructing momentum equations
smoothSolver:  Solving for e.air, Initial residual = 0.0164157, Final residual = 7.561e-12, No Iterations 2
smoothSolver:  Solving for e.water, Initial residual = 5.22156e-05, Final residual = 1.39557e-11, No Iterations 1
min T.air 300
min T.water 300
GAMG:  Solving for p_rgh, Initial residual = 2.88921e-06, Final residual = 2.47494e-09, No Iterations 5
PIMPLE: iteration 2
MULES: Solving for alpha.air
MULES: Solving for alpha.air
alpha.air volume fraction = 0.293336  Min(alpha.air) = 0  Max(alpha.air) = 1
Constructing momentum equations
smoothSolver:  Solving for e.air, Initial residual = 0.0177066, Final residual = 7.25239e-12, No Iterations 2
smoothSolver:  Solving for e.water, Initial residual = 1.39505e-05, Final residual = 1.34523e-11, No Iterations 1
min T.air 300
min T.water 300
GAMG:  Solving for p_rgh, Initial residual = 8.39778e-07, Final residual = 7.0002e-09, No Iterations 1
PIMPLE: iteration 3
MULES: Solving for alpha.air
MULES: Solving for alpha.air
alpha.air volume fraction = 0.293336  Min(alpha.air) = -5.6151e-242  Max(alpha.air) = 1
Constructing momentum equations
smoothSolver:  Solving for e.air, Initial residual = 0.0199015, Final residual = 8.43006e-12, No Iterations 2
smoothSolver:  Solving for e.water, Initial residual = 4.0893e-06, Final residual = 1.28912e-11, No Iterations 1
min T.air 300
min T.water 300
GAMG:  Solving for p_rgh, Initial residual = 7.4812e-07, Final residual = 5.16783e-09, No Iterations 1
ExecutionTime = 0.76 s


Courant Number mean: 0.000105414 max: 0.00589536
Max Ur Courant Number = 0.207775
Time = 0.1

PIMPLE: iteration 1
MULES: Solving for alpha.air
MULES: Solving for alpha.air
alpha.air volume fraction = 0.293336  Min(alpha.air) = 0  Max(alpha.air) = 1
Constructing momentum equations
smoothSolver:  Solving for e.air, Initial residual = 0.986222, Final residual = 2.34448e-09, No Iterations 1
smoothSolver:  Solving for e.water, Initial residual = 5.42499e-05, Final residual = 1.42252e-11, No Iterations 1
min T.air 300
min T.water 300
GAMG:  Solving for p_rgh, Initial residual = 1.57545e-05, Final residual = 3.72939e-09, No Iterations 13
PIMPLE: iteration 2
MULES: Solving for alpha.air
MULES: Solving for alpha.air
alpha.air volume fraction = 0.293107  Min(alpha.air) = -9.33735e-158  Max(alpha.air) = 1
Constructing momentum equations
smoothSolver:  Solving for e.air, Initial residual = 0.982464, Final residual = 2.75468e-12, No Iterations 2
smoothSolver:  Solving for e.water, Initial residual = 0.72001, Final residual = 1.54428e-09, No Iterations 4
min T.air 300
min T.water 300
GAMG:  Solving for p_rgh, Initial residual = 5.38941e-05, Final residual = 3.03136e-09, No Iterations 13
PIMPLE: iteration 3
MULES: Solving for alpha.air
MULES: Solving for alpha.air
alpha.air volume fraction = 0.293388  Min(alpha.air) = -7.559e-264  Max(alpha.air) = 1
Constructing momentum equations
smoothSolver:  Solving for e.air, Initial residual = 0.792326, Final residual = 5.44393e-12, No Iterations 2
smoothSolver:  Solving for e.water, Initial residual = 0.45832, Final residual = 1.57744e-09, No Iterations 4
min T.air 300
min T.water 299.997
GAMG:  Solving for p_rgh, Initial residual = 6.87627e-05, Final residual = 3.60226e-09, No Iterations 8
ExecutionTime = 0.81 s


Courant Number mean: 0.0193248 max: 0.596625
Max Ur Courant Number = 1.27801
Time = 0.105

PIMPLE: iteration 1
MULES: Solving for alpha.air
MULES: Solving for alpha.air
alpha.air volume fraction = 0.293336  Min(alpha.air) = 0  Max(alpha.air) = 1
Constructing momentum equations
smoothSolver:  Solving for e.air, Initial residual = 0.181445, Final residual = 6.29127e-12, No Iterations 2
smoothSolver:  Solving for e.water, Initial residual = 0.00674581, Final residual = 2.73714e-09, No Iterations 5
min T.air 299.995
min T.water 300
GAMG:  Solving for p_rgh, Initial residual = 4.88857e-05, Final residual = 8.67124e-09, No Iterations 9
PIMPLE: iteration 2
MULES: Solving for alpha.air
MULES: Solving for alpha.air
alpha.air volume fraction = 0.293391  Min(alpha.air) = -3.38813e-23  Max(alpha.air) = 1
Constructing momentum equations
smoothSolver:  Solving for e.air, Initial residual = 0.273876, Final residual = 1.58337e-11, No Iterations 2
smoothSolver:  Solving for e.water, Initial residual = 0.00347749, Final residual = 1.71112e-09, No Iterations 5
min T.air 299.903
min T.water 299.998
GAMG:  Solving for p_rgh, Initial residual = 2.25689e-05, Final residual = 9.41005e-09, No Iterations 8
PIMPLE: iteration 3
MULES: Solving for alpha.air
MULES: Solving for alpha.air
alpha.air volume fraction = 0.293387  Min(alpha.air) = -4.23516e-24  Max(alpha.air) = 1
Constructing momentum equations
smoothSolver:  Solving for e.air, Initial residual = 0.131214, Final residual = 3.64764e-11, No Iterations 2
smoothSolver:  Solving for e.water, Initial residual = 0.00646544, Final residual = 7.97974e-09, No Iterations 4
min T.air 299.958
min T.water 299.996
GAMG:  Solving for p_rgh, Initial residual = 1.39997e-05, Final residual = 2.27913e-09, No Iterations 8
ExecutionTime = 0.85 s


Courant Number mean: 0.0217714 max: 0.644596
Max Ur Courant Number = 0.627091
Time = 0.11

PIMPLE: iteration 1
MULES: Solving for alpha.air
MULES: Solving for alpha.air
alpha.air volume fraction = 0.29334  Min(alpha.air) = 0  Max(alpha.air) = 1
Constructing momentum equations
smoothSolver:  Solving for e.air, Initial residual = 0.248465, Final residual = 6.94452e-12, No Iterations 2
smoothSolver:  Solving for e.water, Initial residual = 0.0181209, Final residual = 1.16936e-09, No Iterations 6
min T.air 299.924
min T.water 299.997
GAMG:  Solving for p_rgh, Initial residual = 3.57057e-05, Final residual = 4.31906e-09, No Iterations 9
PIMPLE: iteration 2
MULES: Solving for alpha.air
MULES: Solving for alpha.air
alpha.air volume fraction = 0.293392  Min(alpha.air) = -2.47087e-139  Max(alpha.air) = 1
Constructing momentum equations
smoothSolver:  Solving for e.air, Initial residual = 0.198206, Final residual = 4.33303e-11, No Iterations 2
smoothSolver:  Solving for e.water, Initial residual = 0.0125679, Final residual = 5.68323e-09, No Iterations 5
min T.air 299.97
min T.water 299.99
GAMG:  Solving for p_rgh, Initial residual = 8.66156e-06, Final residual = 5.65067e-09, No Iterations 6
PIMPLE: iteration 3
MULES: Solving for alpha.air
MULES: Solving for alpha.air
alpha.air volume fraction = 0.293387  Min(alpha.air) = -9.6632e-121  Max(alpha.air) = 1
Constructing momentum equations
smoothSolver:  Solving for e.air, Initial residual = 0.0352797, Final residual = 7.62989e-12, No Iterations 2
smoothSolver:  Solving for e.water, Initial residual = 0.00899809, Final residual = 9.00199e-10, No Iterations 5
min T.air 299.978
min T.water 299.995
GAMG:  Solving for p_rgh, Initial residual = 4.90157e-06, Final residual = 2.17862e-09, No Iterations 7
ExecutionTime = 0.88 s


Courant Number mean: 0.0212529 max: 0.618749
Max Ur Courant Number = 0.337552
Time = 0.115

PIMPLE: iteration 1
MULES: Solving for alpha.air
MULES: Solving for alpha.air
alpha.air volume fraction = 0.293361  Min(alpha.air) = 0  Max(alpha.air) = 1
Constructing momentum equations
smoothSolver:  Solving for e.air, Initial residual = 0.31052, Final residual = 1.14212e-12, No Iterations 2
smoothSolver:  Solving for e.water, Initial residual = 0.0134726, Final residual = 1.98377e-09, No Iterations 6
min T.air 299.983
min T.water 299.993
GAMG:  Solving for p_rgh, Initial residual = 2.94097e-05, Final residual = 1.97511e-09, No Iterations 7
PIMPLE: iteration 2
MULES: Solving for alpha.air
MULES: Solving for alpha.air
alpha.air volume fraction = 0.293387  Min(alpha.air) = 0  Max(alpha.air) = 1
Constructing momentum equations
smoothSolver:  Solving for e.air, Initial residual = 0.0565841, Final residual = 7.64146e-12, No Iterations 2
smoothSolver:  Solving for e.water, Initial residual = 0.0112338, Final residual = 8.1475e-09, No Iterations 4
min T.air 299.996
min T.water 299.989
GAMG:  Solving for p_rgh, Initial residual = 5.96426e-06, Final residual = 4.30761e-09, No Iterations 4
PIMPLE: iteration 3
MULES: Solving for alpha.air
MULES: Solving for alpha.air
alpha.air volume fraction = 0.29339  Min(alpha.air) = -2.64311e-279  Max(alpha.air) = 1
Constructing momentum equations
smoothSolver:  Solving for e.air, Initial residual = 0.017701, Final residual = 9.57734e-12, No Iterations 2
smoothSolver:  Solving for e.water, Initial residual = 0.00548262, Final residual = 6.84467e-10, No Iterations 5
min T.air 299.987
min T.water 299.991
GAMG:  Solving for p_rgh, Initial residual = 1.18907e-05, Final residual = 4.85832e-09, No Iterations 5
ExecutionTime = 0.91 s


Courant Number mean: 0.020736 max: 0.541171
Max Ur Courant Number = 0.251408
Time = 0.12

PIMPLE: iteration 1
MULES: Solving for alpha.air
MULES: Solving for alpha.air
alpha.air volume fraction = 0.293377  Min(alpha.air) = -2.01389e-56  Max(alpha.air) = 1
Constructing momentum equations
smoothSolver:  Solving for e.air, Initial residual = 0.0840982, Final residual = 1.71121e-12, No Iterations 2
smoothSolver:  Solving for e.water, Initial residual = 0.0113891, Final residual = 2.1853e-09, No Iterations 5
min T.air 299.992
min T.water 299.987
GAMG:  Solving for p_rgh, Initial residual = 2.20262e-05, Final residual = 8.51666e-09, No Iterations 7
PIMPLE: iteration 2
MULES: Solving for alpha.air
MULES: Solving for alpha.air
alpha.air volume fraction = 0.293394  Min(alpha.air) = 0  Max(alpha.air) = 1
Constructing momentum equations
smoothSolver:  Solving for e.air, Initial residual = 0.0680631, Final residual = 4.91575e-12, No Iterations 2
smoothSolver:  Solving for e.water, Initial residual = 0.00563999, Final residual = 3.60044e-10, No Iterations 4
min T.air 299.997
min T.water 299.987
GAMG:  Solving for p_rgh, Initial residual = 6.90215e-06, Final residual = 6.49439e-09, No Iterations 5
PIMPLE: iteration 3
MULES: Solving for alpha.air
MULES: Solving for alpha.air
alpha.air volume fraction = 0.29339  Min(alpha.air) = 0  Max(alpha.air) = 1
Constructing momentum equations
smoothSolver:  Solving for e.air, Initial residual = 0.0419526, Final residual = 9.93028e-13, No Iterations 2
smoothSolver:  Solving for e.water, Initial residual = 0.00414247, Final residual = 4.333e-10, No Iterations 4
min T.air 299.991
min T.water 299.987
GAMG:  Solving for p_rgh, Initial residual = 4.95236e-06, Final residual = 5.33931e-09, No Iterations 3
ExecutionTime = 0.94 s


Courant Number mean: 0.0207276 max: 0.480173
Max Ur Courant Number = 0.213035
Time = 0.125

PIMPLE: iteration 1
MULES: Solving for alpha.air
MULES: Solving for alpha.air
alpha.air volume fraction = 0.293388  Min(alpha.air) = 0  Max(alpha.air) = 1
Constructing momentum equations
smoothSolver:  Solving for e.air, Initial residual = 0.00733515, Final residual = 1.99159e-12, No Iterations 2
smoothSolver:  Solving for e.water, Initial residual = 0.00904381, Final residual = 8.2002e-09, No Iterations 4
min T.air 299.994
min T.water 299.983
GAMG:  Solving for p_rgh, Initial residual = 1.42392e-05, Final residual = 7.74529e-09, No Iterations 6
PIMPLE: iteration 2
MULES: Solving for alpha.air
MULES: Solving for alpha.air
alpha.air volume fraction = 0.29339  Min(alpha.air) = -1.92074e-63  Max(alpha.air) = 1
Constructing momentum equations
smoothSolver:  Solving for e.air, Initial residual = 0.0429114, Final residual = 1.07757e-12, No Iterations 2
smoothSolver:  Solving for e.water, Initial residual = 0.00312533, Final residual = 7.35979e-09, No Iterations 3
min T.air 299.993
min T.water 299.983
GAMG:  Solving for p_rgh, Initial residual = 3.73169e-06, Final residual = 3.434e-09, No Iterations 5
PIMPLE: iteration 3
MULES: Solving for alpha.air
MULES: Solving for alpha.air
alpha.air volume fraction = 0.293392  Min(alpha.air) = -4.85404e-49  Max(alpha.air) = 1
Constructing momentum equations
smoothSolver:  Solving for e.air, Initial residual = 0.00604711, Final residual = 6.14648e-13, No Iterations 2
smoothSolver:  Solving for e.water, Initial residual = 0.0022777, Final residual = 9.60648e-09, No Iterations 3
min T.air 299.989
min T.water 299.983
GAMG:  Solving for p_rgh, Initial residual = 2.67785e-06, Final residual = 3.83674e-09, No Iterations 5
ExecutionTime = 0.97 s


Courant Number mean: 0.0208172 max: 0.410144
Max Ur Courant Number = 0.223784
Time = 0.13

PIMPLE: iteration 1
MULES: Solving for alpha.air
MULES: Solving for alpha.air
alpha.air volume fraction = 0.293391  Min(alpha.air) = 0  Max(alpha.air) = 1
Constructing momentum equations
smoothSolver:  Solving for e.air, Initial residual = 0.00880223, Final residual = 1.69347e-12, No Iterations 2
smoothSolver:  Solving for e.water, Initial residual = 0.00798093, Final residual = 4.58797e-09, No Iterations 4
min T.air 299.993
min T.water 299.978
GAMG:  Solving for p_rgh, Initial residual = 2.20399e-05, Final residual = 9.86022e-09, No Iterations 5
PIMPLE: iteration 2
MULES: Solving for alpha.air
MULES: Solving for alpha.air
alpha.air volume fraction = 0.293391  Min(alpha.air) = -5.00328e-54  Max(alpha.air) = 1
Constructing momentum equations
smoothSolver:  Solving for e.air, Initial residual = 0.0278465, Final residual = 8.51332e-13, No Iterations 2
smoothSolver:  Solving for e.water, Initial residual = 0.00306969, Final residual = 2.4237e-10, No Iterations 4
min T.air 299.991
min T.water 299.979
GAMG:  Solving for p_rgh, Initial residual = 6.08707e-06, Final residual = 9.18141e-09, No Iterations 4
PIMPLE: iteration 3
MULES: Solving for alpha.air
MULES: Solving for alpha.air
alpha.air volume fraction = 0.293392  Min(alpha.air) = -9.6243e-69  Max(alpha.air) = 1
Constructing momentum equations
smoothSolver:  Solving for e.air, Initial residual = 0.0165631, Final residual = 8.59573e-13, No Iterations 2
smoothSolver:  Solving for e.water, Initial residual = 0.0019025, Final residual = 6.5842e-10, No Iterations 4
min T.air 299.989
min T.water 299.979
GAMG:  Solving for p_rgh, Initial residual = 4.90123e-06, Final residual = 8.34599e-09, No Iterations 5
ExecutionTime = 1 s


Courant Number mean: 0.0208143 max: 0.357037
Max Ur Courant Number = 0.234721
Time = 0.135

PIMPLE: iteration 1
MULES: Solving for alpha.air
MULES: Solving for alpha.air
alpha.air volume fraction = 0.293391  Min(alpha.air) = 0  Max(alpha.air) = 1
Constructing momentum equations
smoothSolver:  Solving for e.air, Initial residual = 0.00485528, Final residual = 2.08144e-12, No Iterations 2
smoothSolver:  Solving for e.water, Initial residual = 0.00806565, Final residual = 1.63861e-09, No Iterations 4
min T.air 299.992
min T.water 299.974
GAMG:  Solving for p_rgh, Initial residual = 1.02491e-05, Final residual = 7.59468e-09, No Iterations 4
PIMPLE: iteration 2
MULES: Solving for alpha.air
MULES: Solving for alpha.air
alpha.air volume fraction = 0.293389  Min(alpha.air) = 0  Max(alpha.air) = 1
Constructing momentum equations
smoothSolver:  Solving for e.air, Initial residual = 0.039216, Final residual = 8.80297e-13, No Iterations 2
smoothSolver:  Solving for e.water, Initial residual = 0.00346213, Final residual = 3.38202e-09, No Iterations 3
min T.air 299.991
min T.water 299.976
GAMG:  Solving for p_rgh, Initial residual = 3.16711e-06, Final residual = 7.5802e-09, No Iterations 4
PIMPLE: iteration 3
MULES: Solving for alpha.air
MULES: Solving for alpha.air
alpha.air volume fraction = 0.293391  Min(alpha.air) = -7.06909e-91  Max(alpha.air) = 1
Constructing momentum equations
smoothSolver:  Solving for e.air, Initial residual = 0.00955819, Final residual = 3.65731e-13, No Iterations 2
smoothSolver:  Solving for e.water, Initial residual = 0.00185707, Final residual = 8.15895e-09, No Iterations 3
min T.air 299.989
min T.water 299.974
GAMG:  Solving for p_rgh, Initial residual = 4.63809e-06, Final residual = 3.77527e-09, No Iterations 5
ExecutionTime = 1.03 s


Courant Number mean: 0.0208284 max: 0.31483
Max Ur Courant Number = 0.27262
Time = 0.14

PIMPLE: iteration 1
MULES: Solving for alpha.air
MULES: Solving for alpha.air
alpha.air volume fraction = 0.293389  Min(alpha.air) = 0  Max(alpha.air) = 1
Constructing momentum equations
smoothSolver:  Solving for e.air, Initial residual = 0.0106397, Final residual = 2.1015e-12, No Iterations 2
smoothSolver:  Solving for e.water, Initial residual = 0.00876807, Final residual = 3.20089e-10, No Iterations 4
min T.air 299.991
min T.water 299.971
GAMG:  Solving for p_rgh, Initial residual = 1.47667e-05, Final residual = 7.76431e-09, No Iterations 5
PIMPLE: iteration 2
MULES: Solving for alpha.air
MULES: Solving for alpha.air
alpha.air volume fraction = 0.293391  Min(alpha.air) = -2.42006e-100  Max(alpha.air) = 1
Constructing momentum equations
smoothSolver:  Solving for e.air, Initial residual = 0.0275787, Final residual = 6.40497e-13, No Iterations 2
smoothSolver:  Solving for e.water, Initial residual = 0.00373281, Final residual = 3.43763e-09, No Iterations 3
min T.air 299.988
min T.water 299.973
GAMG:  Solving for p_rgh, Initial residual = 5.71255e-06, Final residual = 6.00262e-09, No Iterations 4
PIMPLE: iteration 3
MULES: Solving for alpha.air
MULES: Solving for alpha.air
alpha.air volume fraction = 0.29339  Min(alpha.air) = -2.13084e-108  Max(alpha.air) = 1
Constructing momentum equations
smoothSolver:  Solving for e.air, Initial residual = 0.0168959, Final residual = 3.95429e-13, No Iterations 2
smoothSolver:  Solving for e.water, Initial residual = 0.00153658, Final residual = 2.33436e-09, No Iterations 3
min T.air 299.987
min T.water 299.971
GAMG:  Solving for p_rgh, Initial residual = 4.79488e-06, Final residual = 4.80954e-09, No Iterations 5
ExecutionTime = 1.06 s


Courant Number mean: 0.0208483 max: 0.273973
Max Ur Courant Number = 0.319678
Time = 0.145

PIMPLE: iteration 1
MULES: Solving for alpha.air
MULES: Solving for alpha.air
alpha.air volume fraction = 0.293388  Min(alpha.air) = 1.96963e-155  Max(alpha.air) = 1
Constructing momentum equations
smoothSolver:  Solving for e.air, Initial residual = 0.0247994, Final residual = 1.72539e-12, No Iterations 2
smoothSolver:  Solving for e.water, Initial residual = 0.0090045, Final residual = 4.51273e-09, No Iterations 3
min T.air 299.988
min T.water 299.971
GAMG:  Solving for p_rgh, Initial residual = 1.37446e-05, Final residual = 3.80542e-09, No Iterations 6
PIMPLE: iteration 2
MULES: Solving for alpha.air
MULES: Solving for alpha.air
alpha.air volume fraction = 0.293392  Min(alpha.air) = 9.01174e-150  Max(alpha.air) = 1
Constructing momentum equations
smoothSolver:  Solving for e.air, Initial residual = 0.00440256, Final residual = 4.62892e-13, No Iterations 2
smoothSolver:  Solving for e.water, Initial residual = 0.00325342, Final residual = 1.30204e-09, No Iterations 3
min T.air 299.982
min T.water 299.968
GAMG:  Solving for p_rgh, Initial residual = 4.74641e-06, Final residual = 9.11104e-09, No Iterations 5
PIMPLE: iteration 3
MULES: Solving for alpha.air
MULES: Solving for alpha.air
alpha.air volume fraction = 0.293386  Min(alpha.air) = -8.81335e-61  Max(alpha.air) = 1
Constructing momentum equations
smoothSolver:  Solving for e.air, Initial residual = 0.00908818, Final residual = 2.14206e-13, No Iterations 2
smoothSolver:  Solving for e.water, Initial residual = 0.00221468, Final residual = 1.9066e-09, No Iterations 3
min T.air 299.982
min T.water 299.978
GAMG:  Solving for p_rgh, Initial residual = 6.72111e-06, Final residual = 8.66064e-09, No Iterations 5
ExecutionTime = 1.09 s


Courant Number mean: 0.0208154 max: 0.287714
Max Ur Courant Number = 0.372195
Time = 0.15

PIMPLE: iteration 1
MULES: Solving for alpha.air
MULES: Solving for alpha.air
alpha.air volume fraction = 0.293386  Min(alpha.air) = 2.63891e-140  Max(alpha.air) = 1
Constructing momentum equations
smoothSolver:  Solving for e.air, Initial residual = 0.0124367, Final residual = 1.36e-12, No Iterations 2
smoothSolver:  Solving for e.water, Initial residual = 0.00810991, Final residual = 3.74686e-09, No Iterations 3
min T.air 299.983
min T.water 299.977
GAMG:  Solving for p_rgh, Initial residual = 1.33745e-05, Final residual = 7.16756e-09, No Iterations 7
PIMPLE: iteration 2
MULES: Solving for alpha.air
MULES: Solving for alpha.air
alpha.air volume fraction = 0.293384  Min(alpha.air) = -3.46772e-83  Max(alpha.air) = 1
Constructing momentum equations
smoothSolver:  Solving for e.air, Initial residual = 0.0287359, Final residual = 5.85506e-13, No Iterations 2
smoothSolver:  Solving for e.water, Initial residual = 0.00314537, Final residual = 7.85874e-10, No Iterations 3
min T.air 299.978
min T.water 299.98
GAMG:  Solving for p_rgh, Initial residual = 5.63864e-06, Final residual = 7.71569e-09, No Iterations 4
PIMPLE: iteration 3
MULES: Solving for alpha.air
MULES: Solving for alpha.air
alpha.air volume fraction = 0.293386  Min(alpha.air) = 1.06548e-124  Max(alpha.air) = 1
Constructing momentum equations
smoothSolver:  Solving for e.air, Initial residual = 0.00705207, Final residual = 4.0145e-13, No Iterations 2
smoothSolver:  Solving for e.water, Initial residual = 0.00107267, Final residual = 2.91179e-10, No Iterations 3
min T.air 299.98
min T.water 299.979
GAMG:  Solving for p_rgh, Initial residual = 2.91403e-06, Final residual = 9.73532e-09, No Iterations 3
ExecutionTime = 1.12 s


Courant Number mean: 0.0208925 max: 0.311148
Max Ur Courant Number = 0.331383
Time = 0.155

PIMPLE: iteration 1
MULES: Solving for alpha.air
MULES: Solving for alpha.air
alpha.air volume fraction = 0.293385  Min(alpha.air) = 8.37953e-123  Max(alpha.air) = 1
Constructing momentum equations
smoothSolver:  Solving for e.air, Initial residual = 0.00842308, Final residual = 1.74499e-12, No Iterations 2
smoothSolver:  Solving for e.water, Initial residual = 0.00808113, Final residual = 1.7954e-09, No Iterations 3
min T.air 299.979
min T.water 299.977
GAMG:  Solving for p_rgh, Initial residual = 3.55435e-05, Final residual = 4.38228e-09, No Iterations 5
PIMPLE: iteration 2
MULES: Solving for alpha.air
MULES: Solving for alpha.air
alpha.air volume fraction = 0.293383  Min(alpha.air) = 3.21406e-119  Max(alpha.air) = 1
Constructing momentum equations
smoothSolver:  Solving for e.air, Initial residual = 0.0328516, Final residual = 1.11632e-11, No Iterations 2
smoothSolver:  Solving for e.water, Initial residual = 0.00217196, Final residual = 4.50706e-10, No Iterations 3
min T.air 299.977
min T.water 299.977
GAMG:  Solving for p_rgh, Initial residual = 3.18768e-06, Final residual = 6.84361e-09, No Iterations 4
PIMPLE: iteration 3
MULES: Solving for alpha.air
MULES: Solving for alpha.air
alpha.air volume fraction = 0.293387  Min(alpha.air) = 3.71588e-119  Max(alpha.air) = 1
Constructing momentum equations
smoothSolver:  Solving for e.air, Initial residual = 0.0151041, Final residual = 6.27582e-13, No Iterations 2
smoothSolver:  Solving for e.water, Initial residual = 0.00116997, Final residual = 3.43879e-10, No Iterations 3
min T.air 299.977
min T.water 299.977
GAMG:  Solving for p_rgh, Initial residual = 2.2112e-06, Final residual = 3.42951e-09, No Iterations 4
ExecutionTime = 1.16 s


Courant Number mean: 0.0210122 max: 0.317014
Max Ur Courant Number = 0.314105
Time = 0.16

PIMPLE: iteration 1
MULES: Solving for alpha.air
MULES: Solving for alpha.air
alpha.air volume fraction = 0.293385  Min(alpha.air) = 3.82647e-119  Max(alpha.air) = 1
Constructing momentum equations
smoothSolver:  Solving for e.air, Initial residual = 0.0213153, Final residual = 7.23511e-13, No Iterations 2
smoothSolver:  Solving for e.water, Initial residual = 0.00820163, Final residual = 1.02271e-09, No Iterations 3
min T.air 299.977
min T.water 299.975
GAMG:  Solving for p_rgh, Initial residual = 1.38738e-05, Final residual = 6.35524e-09, No Iterations 5
PIMPLE: iteration 2
MULES: Solving for alpha.air
MULES: Solving for alpha.air
alpha.air volume fraction = 0.293386  Min(alpha.air) = 3.50002e-119  Max(alpha.air) = 1
Constructing momentum equations
smoothSolver:  Solving for e.air, Initial residual = 0.0124768, Final residual = 4.24772e-13, No Iterations 2
smoothSolver:  Solving for e.water, Initial residual = 0.0016042, Final residual = 1.70998e-10, No Iterations 3
min T.air 299.976
min T.water 299.976
GAMG:  Solving for p_rgh, Initial residual = 3.20406e-06, Final residual = 6.99545e-09, No Iterations 4
PIMPLE: iteration 3
MULES: Solving for alpha.air
MULES: Solving for alpha.air
alpha.air volume fraction = 0.293388  Min(alpha.air) = 4.85665e-116  Max(alpha.air) = 1
Constructing momentum equations
smoothSolver:  Solving for e.air, Initial residual = 0.00448751, Final residual = 3.85889e-13, No Iterations 2
smoothSolver:  Solving for e.water, Initial residual = 0.000399419, Final residual = 1.18924e-10, No Iterations 3
min T.air 299.976
min T.water 299.976
GAMG:  Solving for p_rgh, Initial residual = 1.13056e-06, Final residual = 4.91978e-09, No Iterations 3
ExecutionTime = 1.19 s


Courant Number mean: 0.0211563 max: 0.337708
Max Ur Courant Number = 0.318779
Time = 0.165

PIMPLE: iteration 1
MULES: Solving for alpha.air
MULES: Solving for alpha.air
alpha.air volume fraction = 0.293385  Min(alpha.air) = 6.17387e-110  Max(alpha.air) = 1
Constructing momentum equations
smoothSolver:  Solving for e.air, Initial residual = 0.0121102, Final residual = 5.08202e-13, No Iterations 2
smoothSolver:  Solving for e.water, Initial residual = 0.00802424, Final residual = 6.54966e-10, No Iterations 3
min T.air 299.976
min T.water 299.975
GAMG:  Solving for p_rgh, Initial residual = 9.031e-06, Final residual = 2.71881e-09, No Iterations 5
PIMPLE: iteration 2
MULES: Solving for alpha.air
MULES: Solving for alpha.air
alpha.air volume fraction = 0.293387  Min(alpha.air) = 7.27777e-108  Max(alpha.air) = 1
Constructing momentum equations
smoothSolver:  Solving for e.air, Initial residual = 0.0107041, Final residual = 2.94712e-13, No Iterations 2
smoothSolver:  Solving for e.water, Initial residual = 0.00145535, Final residual = 3.20959e-09, No Iterations 2
min T.air 299.975
min T.water 299.975
GAMG:  Solving for p_rgh, Initial residual = 2.1055e-06, Final residual = 5.69836e-09, No Iterations 4
PIMPLE: iteration 3
MULES: Solving for alpha.air
MULES: Solving for alpha.air
alpha.air volume fraction = 0.293388  Min(alpha.air) = 2.2344e-107  Max(alpha.air) = 1
Constructing momentum equations
smoothSolver:  Solving for e.air, Initial residual = 0.00450084, Final residual = 2.1976e-13, No Iterations 2
smoothSolver:  Solving for e.water, Initial residual = 0.000411457, Final residual = 3.65192e-09, No Iterations 2
min T.air 299.976
min T.water 299.976
GAMG:  Solving for p_rgh, Initial residual = 8.86202e-07, Final residual = 6.7536e-09, No Iterations 3
ExecutionTime = 1.22 s


Courant Number mean: 0.0213243 max: 0.356992
Max Ur Courant Number = 0.32325
Time = 0.17

PIMPLE: iteration 1
MULES: Solving for alpha.air
MULES: Solving for alpha.air
alpha.air volume fraction = 0.293386  Min(alpha.air) = 1.48141e-106  Max(alpha.air) = 1
Constructing momentum equations
smoothSolver:  Solving for e.air, Initial residual = 0.00968818, Final residual = 4.92829e-13, No Iterations 2
smoothSolver:  Solving for e.water, Initial residual = 0.00766442, Final residual = 3.17696e-10, No Iterations 3
min T.air 299.976
min T.water 299.972
GAMG:  Solving for p_rgh, Initial residual = 9.58937e-06, Final residual = 5.12607e-09, No Iterations 5
PIMPLE: iteration 2
MULES: Solving for alpha.air
MULES: Solving for alpha.air
alpha.air volume fraction = 0.293388  Min(alpha.air) = 1.01265e-105  Max(alpha.air) = 1
Constructing momentum equations
smoothSolver:  Solving for e.air, Initial residual = 0.013688, Final residual = 3.94128e-13, No Iterations 2
smoothSolver:  Solving for e.water, Initial residual = 0.00157454, Final residual = 1.87319e-09, No Iterations 2
min T.air 299.973
min T.water 299.974
GAMG:  Solving for p_rgh, Initial residual = 3.48216e-06, Final residual = 5.73541e-09, No Iterations 4
PIMPLE: iteration 3
MULES: Solving for alpha.air
MULES: Solving for alpha.air
alpha.air volume fraction = 0.293389  Min(alpha.air) = 3.01278e-105  Max(alpha.air) = 1
Constructing momentum equations
smoothSolver:  Solving for e.air, Initial residual = 0.00447151, Final residual = 6.14189e-13, No Iterations 2
smoothSolver:  Solving for e.water, Initial residual = 0.000570117, Final residual = 2.70581e-09, No Iterations 2
min T.air 299.974
min T.water 299.974
GAMG:  Solving for p_rgh, Initial residual = 1.43014e-06, Final residual = 8.06987e-09, No Iterations 3
ExecutionTime = 1.25 s


Courant Number mean: 0.0215175 max: 0.375817
Max Ur Courant Number = 0.333392
Time = 0.175

PIMPLE: iteration 1
MULES: Solving for alpha.air
MULES: Solving for alpha.air
alpha.air volume fraction = 0.293388  Min(alpha.air) = 1.51318e-104  Max(alpha.air) = 1
Constructing momentum equations
smoothSolver:  Solving for e.air, Initial residual = 0.00615838, Final residual = 3.20899e-13, No Iterations 2
smoothSolver:  Solving for e.water, Initial residual = 0.00789142, Final residual = 1.39994e-10, No Iterations 3
min T.air 299.974
min T.water 299.972
GAMG:  Solving for p_rgh, Initial residual = 1.05526e-05, Final residual = 5.3054e-09, No Iterations 5
PIMPLE: iteration 2
MULES: Solving for alpha.air
MULES: Solving for alpha.air
alpha.air volume fraction = 0.293389  Min(alpha.air) = 3.01544e-104  Max(alpha.air) = 1
Constructing momentum equations
smoothSolver:  Solving for e.air, Initial residual = 0.016972, Final residual = 3.35843e-13, No Iterations 2
smoothSolver:  Solving for e.water, Initial residual = 0.00124128, Final residual = 3.99592e-09, No Iterations 2
min T.air 299.976
min T.water 299.973
GAMG:  Solving for p_rgh, Initial residual = 2.67839e-06, Final residual = 7.332e-09, No Iterations 4
PIMPLE: iteration 3
MULES: Solving for alpha.air
MULES: Solving for alpha.air
alpha.air volume fraction = 0.29339  Min(alpha.air) = 3.01615e-104  Max(alpha.air) = 1
Constructing momentum equations
smoothSolver:  Solving for e.air, Initial residual = 0.00566944, Final residual = 3.09208e-13, No Iterations 2
smoothSolver:  Solving for e.water, Initial residual = 0.000618251, Final residual = 2.93414e-09, No Iterations 2
min T.air 299.975
min T.water 299.973
GAMG:  Solving for p_rgh, Initial residual = 1.13956e-06, Final residual = 6.78746e-09, No Iterations 3
ExecutionTime = 1.28 s


Courant Number mean: 0.0217417 max: 0.394377
Max Ur Courant Number = 0.349303
Time = 0.18

PIMPLE: iteration 1
MULES: Solving for alpha.air
MULES: Solving for alpha.air
alpha.air volume fraction = 0.29339  Min(alpha.air) = 3.06778e-104  Max(alpha.air) = 1
Constructing momentum equations
smoothSolver:  Solving for e.air, Initial residual = 0.00166566, Final residual = 9.30324e-09, No Iterations 1
smoothSolver:  Solving for e.water, Initial residual = 0.00826283, Final residual = 1.21791e-10, No Iterations 3
min T.air 299.973
min T.water 299.972
GAMG:  Solving for p_rgh, Initial residual = 9.94544e-06, Final residual = 7.46214e-09, No Iterations 4
PIMPLE: iteration 2
MULES: Solving for alpha.air
MULES: Solving for alpha.air
alpha.air volume fraction = 0.293391  Min(alpha.air) = 3.17925e-104  Max(alpha.air) = 1
Constructing momentum equations
smoothSolver:  Solving for e.air, Initial residual = 0.0272314, Final residual = 2.5399e-13, No Iterations 2
smoothSolver:  Solving for e.water, Initial residual = 0.00133592, Final residual = 5.4268e-09, No Iterations 2
min T.air 299.972
min T.water 299.972
GAMG:  Solving for p_rgh, Initial residual = 2.84569e-06, Final residual = 5.21129e-09, No Iterations 4
PIMPLE: iteration 3
MULES: Solving for alpha.air
MULES: Solving for alpha.air
alpha.air volume fraction = 0.293389  Min(alpha.air) = 3.31545e-104  Max(alpha.air) = 1
Constructing momentum equations
smoothSolver:  Solving for e.air, Initial residual = 0.000581533, Final residual = 3.55848e-09, No Iterations 1
smoothSolver:  Solving for e.water, Initial residual = 0.000631235, Final residual = 3.17158e-09, No Iterations 2
min T.air 299.972
min T.water 299.972
GAMG:  Solving for p_rgh, Initial residual = 1.31203e-06, Final residual = 8.74498e-09, No Iterations 3
ExecutionTime = 1.31 s


Courant Number mean: 0.0219694 max: 0.420193
Max Ur Courant Number = 0.380444
Time = 0.185

PIMPLE: iteration 1
MULES: Solving for alpha.air
MULES: Solving for alpha.air
alpha.air volume fraction = 0.29339  Min(alpha.air) = 4.40271e-104  Max(alpha.air) = 1
Constructing momentum equations
smoothSolver:  Solving for e.air, Initial residual = 0.00580423, Final residual = 3.81327e-13, No Iterations 2
smoothSolver:  Solving for e.water, Initial residual = 0.0091239, Final residual = 1.04146e-10, No Iterations 3
min T.air 299.972
min T.water 299.969
GAMG:  Solving for p_rgh, Initial residual = 1.01904e-05, Final residual = 4.04823e-09, No Iterations 6
PIMPLE: iteration 2
MULES: Solving for alpha.air
MULES: Solving for alpha.air
alpha.air volume fraction = 0.293388  Min(alpha.air) = 5.44771e-104  Max(alpha.air) = 1
Constructing momentum equations
smoothSolver:  Solving for e.air, Initial residual = 0.0248901, Final residual = 2.03146e-13, No Iterations 2
smoothSolver:  Solving for e.water, Initial residual = 0.00116104, Final residual = 4.89847e-09, No Iterations 2
min T.air 299.969
min T.water 299.969
GAMG:  Solving for p_rgh, Initial residual = 2.49338e-06, Final residual = 5.14851e-09, No Iterations 4
PIMPLE: iteration 3
MULES: Solving for alpha.air
MULES: Solving for alpha.air
alpha.air volume fraction = 0.29339  Min(alpha.air) = 9.31461e-104  Max(alpha.air) = 1
Constructing momentum equations
smoothSolver:  Solving for e.air, Initial residual = 0.00219242, Final residual = 1.90563e-13, No Iterations 2
smoothSolver:  Solving for e.water, Initial residual = 0.00069107, Final residual = 1.94007e-09, No Iterations 2
min T.air 299.969
min T.water 299.969
GAMG:  Solving for p_rgh, Initial residual = 1.00319e-06, Final residual = 4.10651e-09, No Iterations 3
ExecutionTime = 1.34 s


Courant Number mean: 0.0220507 max: 0.39952
Max Ur Courant Number = 0.339981
Time = 0.19

PIMPLE: iteration 1
MULES: Solving for alpha.air
MULES: Solving for alpha.air
alpha.air volume fraction = 0.293389  Min(alpha.air) = 2.54309e-103  Max(alpha.air) = 1
Constructing momentum equations
smoothSolver:  Solving for e.air, Initial residual = 0.00539971, Final residual = 3.92662e-13, No Iterations 2
smoothSolver:  Solving for e.water, Initial residual = 0.0086844, Final residual = 1.51072e-10, No Iterations 3
min T.air 299.969
min T.water 299.967
GAMG:  Solving for p_rgh, Initial residual = 7.92926e-06, Final residual = 9.63275e-09, No Iterations 3
PIMPLE: iteration 2
MULES: Solving for alpha.air
MULES: Solving for alpha.air
alpha.air volume fraction = 0.293389  Min(alpha.air) = 6.40026e-103  Max(alpha.air) = 1
Constructing momentum equations
smoothSolver:  Solving for e.air, Initial residual = 0.0149191, Final residual = 2.60469e-13, No Iterations 2
smoothSolver:  Solving for e.water, Initial residual = 0.00107654, Final residual = 4.85735e-09, No Iterations 2
min T.air 299.967
min T.water 299.967
GAMG:  Solving for p_rgh, Initial residual = 1.75329e-06, Final residual = 6.45829e-09, No Iterations 4
PIMPLE: iteration 3
MULES: Solving for alpha.air
MULES: Solving for alpha.air
alpha.air volume fraction = 0.293389  Min(alpha.air) = 1.51126e-102  Max(alpha.air) = 1
Constructing momentum equations
smoothSolver:  Solving for e.air, Initial residual = 0.00309644, Final residual = 2.74821e-13, No Iterations 2
smoothSolver:  Solving for e.water, Initial residual = 0.000513335, Final residual = 2.82443e-09, No Iterations 2
min T.air 299.967
min T.water 299.967
GAMG:  Solving for p_rgh, Initial residual = 6.78857e-07, Final residual = 6.60213e-09, No Iterations 2
ExecutionTime = 1.36 s


Courant Number mean: 0.0222797 max: 0.399567
Max Ur Courant Number = 0.331499
Time = 0.195

PIMPLE: iteration 1
MULES: Solving for alpha.air
MULES: Solving for alpha.air
alpha.air volume fraction = 0.293389  Min(alpha.air) = 3.48689e-102  Max(alpha.air) = 1
Constructing momentum equations
smoothSolver:  Solving for e.air, Initial residual = 0.00258759, Final residual = 4.34228e-13, No Iterations 2
smoothSolver:  Solving for e.water, Initial residual = 0.0086687, Final residual = 3.31875e-10, No Iterations 3
min T.air 299.967
min T.water 299.966
GAMG:  Solving for p_rgh, Initial residual = 9.93491e-06, Final residual = 4.67416e-09, No Iterations 5
PIMPLE: iteration 2
MULES: Solving for alpha.air
MULES: Solving for alpha.air
alpha.air volume fraction = 0.293389  Min(alpha.air) = 3.52449e-102  Max(alpha.air) = 1
Constructing momentum equations
smoothSolver:  Solving for e.air, Initial residual = 0.0183112, Final residual = 3.34811e-13, No Iterations 2
smoothSolver:  Solving for e.water, Initial residual = 0.00173871, Final residual = 5.98558e-11, No Iterations 3
min T.air 299.964
min T.water 299.966
GAMG:  Solving for p_rgh, Initial residual = 2.81725e-06, Final residual = 4.12254e-09, No Iterations 5
PIMPLE: iteration 3
MULES: Solving for alpha.air
MULES: Solving for alpha.air
alpha.air volume fraction = 0.293389  Min(alpha.air) = 3.5764e-102  Max(alpha.air) = 1
Constructing momentum equations
smoothSolver:  Solving for e.air, Initial residual = 0.00419036, Final residual = 2.44566e-13, No Iterations 2
smoothSolver:  Solving for e.water, Initial residual = 0.00048535, Final residual = 1.69962e-09, No Iterations 2
min T.air 299.963
min T.water 299.967
GAMG:  Solving for p_rgh, Initial residual = 1.24234e-06, Final residual = 8.65647e-09, No Iterations 2
ExecutionTime = 1.4 s


Courant Number mean: 0.0227245 max: 0.406785
Max Ur Courant Number = 0.330626
Time = 0.2

PIMPLE: iteration 1
MULES: Solving for alpha.air
MULES: Solving for alpha.air
alpha.air volume fraction = 0.293389  Min(alpha.air) = 3.74738e-102  Max(alpha.air) = 1
Constructing momentum equations
smoothSolver:  Solving for e.air, Initial residual = 0.00219491, Final residual = 4.62239e-13, No Iterations 2
smoothSolver:  Solving for e.water, Initial residual = 0.00857266, Final residual = 3.4952e-10, No Iterations 3
min T.air 299.966
min T.water 299.967
GAMG:  Solving for p_rgh, Initial residual = 1.05128e-05, Final residual = 5.6771e-09, No Iterations 6
PIMPLE: iteration 2
MULES: Solving for alpha.air
MULES: Solving for alpha.air
alpha.air volume fraction = 0.293389  Min(alpha.air) = 3.9906e-102  Max(alpha.air) = 1
Constructing momentum equations
smoothSolver:  Solving for e.air, Initial residual = 0.0183784, Final residual = 3.25367e-13, No Iterations 2
smoothSolver:  Solving for e.water, Initial residual = 0.00128818, Final residual = 6.04873e-09, No Iterations 2
min T.air 299.967
min T.water 299.967
GAMG:  Solving for p_rgh, Initial residual = 1.69225e-06, Final residual = 6.91064e-09, No Iterations 4
PIMPLE: iteration 3
MULES: Solving for alpha.air
MULES: Solving for alpha.air
alpha.air volume fraction = 0.293389  Min(alpha.air) = 4.39639e-102  Max(alpha.air) = 1
Constructing momentum equations
smoothSolver:  Solving for e.air, Initial residual = 0.00354901, Final residual = 1.96373e-13, No Iterations 2
smoothSolver:  Solving for e.water, Initial residual = 0.00041484, Final residual = 2.94796e-09, No Iterations 2
min T.air 299.967
min T.water 299.967
GAMG:  Solving for p_rgh, Initial residual = 6.22197e-07, Final residual = 5.69067e-09, No Iterations 3
ExecutionTime = 1.44 s


Courant Number mean: 0.0230544 max: 0.414897
Max Ur Courant Number = 0.333943
Time = 0.205

PIMPLE: iteration 1
MULES: Solving for alpha.air
MULES: Solving for alpha.air
alpha.air volume fraction = 0.293389  Min(alpha.air) = 5.3682e-102  Max(alpha.air) = 1
Constructing momentum equations
smoothSolver:  Solving for e.air, Initial residual = 0.00155866, Final residual = 4.99556e-13, No Iterations 2
smoothSolver:  Solving for e.water, Initial residual = 0.0081401, Final residual = 2.53313e-10, No Iterations 3
min T.air 299.967
min T.water 299.965
GAMG:  Solving for p_rgh, Initial residual = 9.48265e-06, Final residual = 9.35672e-09, No Iterations 4
PIMPLE: iteration 2
MULES: Solving for alpha.air
MULES: Solving for alpha.air
alpha.air volume fraction = 0.293389  Min(alpha.air) = 6.40402e-102  Max(alpha.air) = 1
Constructing momentum equations
smoothSolver:  Solving for e.air, Initial residual = 0.0169454, Final residual = 3.81695e-13, No Iterations 2
smoothSolver:  Solving for e.water, Initial residual = 0.00108038, Final residual = 5.60604e-09, No Iterations 2
min T.air 299.965
min T.water 299.965
GAMG:  Solving for p_rgh, Initial residual = 1.66154e-06, Final residual = 6.50545e-09, No Iterations 4
PIMPLE: iteration 3
MULES: Solving for alpha.air
MULES: Solving for alpha.air
alpha.air volume fraction = 0.293389  Min(alpha.air) = 8.41109e-102  Max(alpha.air) = 1
Constructing momentum equations
smoothSolver:  Solving for e.air, Initial residual = 0.00287297, Final residual = 2.22402e-13, No Iterations 2
smoothSolver:  Solving for e.water, Initial residual = 0.000357293, Final residual = 3.25602e-09, No Iterations 2
min T.air 299.965
min T.water 299.965
GAMG:  Solving for p_rgh, Initial residual = 7.06445e-07, Final residual = 4.97078e-09, No Iterations 3
ExecutionTime = 1.47 s


Courant Number mean: 0.0234073 max: 0.424056
Max Ur Courant Number = 0.339487
Time = 0.21

PIMPLE: iteration 1
MULES: Solving for alpha.air
MULES: Solving for alpha.air
alpha.air volume fraction = 0.293389  Min(alpha.air) = 1.25809e-101  Max(alpha.air) = 1
Constructing momentum equations
smoothSolver:  Solving for e.air, Initial residual = 0.0016361, Final residual = 4.94238e-13, No Iterations 2
smoothSolver:  Solving for e.water, Initial residual = 0.00829203, Final residual = 3.11163e-10, No Iterations 3
min T.air 299.965
min T.water 299.962
GAMG:  Solving for p_rgh, Initial residual = 9.46577e-06, Final residual = 5.60241e-09, No Iterations 4
PIMPLE: iteration 2
MULES: Solving for alpha.air
MULES: Solving for alpha.air
alpha.air volume fraction = 0.293391  Min(alpha.air) = 1.95938e-101  Max(alpha.air) = 1
Constructing momentum equations
smoothSolver:  Solving for e.air, Initial residual = 0.0244202, Final residual = 5.21959e-13, No Iterations 2
smoothSolver:  Solving for e.water, Initial residual = 0.00117811, Final residual = 5.42546e-09, No Iterations 2
min T.air 299.962
min T.water 299.963
GAMG:  Solving for p_rgh, Initial residual = 2.12263e-06, Final residual = 7.45191e-09, No Iterations 4
PIMPLE: iteration 3
MULES: Solving for alpha.air
MULES: Solving for alpha.air
alpha.air volume fraction = 0.293391  Min(alpha.air) = 3.57899e-101  Max(alpha.air) = 1
Constructing momentum equations
smoothSolver:  Solving for e.air, Initial residual = 0.00556925, Final residual = 1.79939e-13, No Iterations 2
smoothSolver:  Solving for e.water, Initial residual = 0.000515292, Final residual = 7.10268e-09, No Iterations 2
min T.air 299.962
min T.water 299.963
GAMG:  Solving for p_rgh, Initial residual = 8.46762e-07, Final residual = 4.61104e-09, No Iterations 3
ExecutionTime = 1.5 s


Courant Number mean: 0.023836 max: 0.430457
Max Ur Courant Number = 0.345709
Time = 0.215

PIMPLE: iteration 1
MULES: Solving for alpha.air
MULES: Solving for alpha.air
alpha.air volume fraction = 0.293392  Min(alpha.air) = 1.07855e-100  Max(alpha.air) = 1
Constructing momentum equations
smoothSolver:  Solving for e.air, Initial residual = 0.00581181, Final residual = 5.28423e-13, No Iterations 2
smoothSolver:  Solving for e.water, Initial residual = 0.00847188, Final residual = 6.23191e-10, No Iterations 3
min T.air 299.962
min T.water 299.961
GAMG:  Solving for p_rgh, Initial residual = 1.04082e-05, Final residual = 6.15685e-09, No Iterations 4
PIMPLE: iteration 2
MULES: Solving for alpha.air
MULES: Solving for alpha.air
alpha.air volume fraction = 0.293393  Min(alpha.air) = 1.11779e-100  Max(alpha.air) = 1
Constructing momentum equations
smoothSolver:  Solving for e.air, Initial residual = 0.0285255, Final residual = 6.65231e-13, No Iterations 2
smoothSolver:  Solving for e.water, Initial residual = 0.00130023, Final residual = 1.24719e-10, No Iterations 3
min T.air 299.961
min T.water 299.961
GAMG:  Solving for p_rgh, Initial residual = 4.20129e-06, Final residual = 6.85561e-09, No Iterations 4
PIMPLE: iteration 3
MULES: Solving for alpha.air
MULES: Solving for alpha.air
[...]
GAMG:  Solving for p_rgh, Initial residual = 2.08285e-07, Final residual = 5.40926e-09, No Iterations 1
ExecutionTime = 61.48 s


Courant Number mean: 0.0541506 max: 0.16629
Max Ur Courant Number = 0.212721
Time = 9.95

PIMPLE: iteration 1
MULES: Solving for alpha.air
MULES: Solving for alpha.air
alpha.air volume fraction = 0.29357  Min(alpha.air) = 2.35449e-30  Max(alpha.air) = 1
Constructing momentum equations
smoothSolver:  Solving for e.air, Initial residual = 0.00133794, Final residual = 4.33782e-10, No Iterations 2
smoothSolver:  Solving for e.water, Initial residual = 0.000564201, Final residual = 9.72381e-10, No Iterations 2
min T.air 299.827
min T.water 299.827
GAMG:  Solving for p_rgh, Initial residual = 1.07766e-06, Final residual = 1.83316e-09, No Iterations 2
PIMPLE: iteration 2
MULES: Solving for alpha.air
MULES: Solving for alpha.air
alpha.air volume fraction = 0.29357  Min(alpha.air) = 2.38416e-30  Max(alpha.air) = 1
Constructing momentum equations
smoothSolver:  Solving for e.air, Initial residual = 0.00239459, Final residual = 1.04331e-10, No Iterations 2
smoothSolver:  Solving for e.water, Initial residual = 1.31388e-05, Final residual = 9.19403e-09, No Iterations 1
min T.air 299.827
min T.water 299.827
GAMG:  Solving for p_rgh, Initial residual = 5.09786e-07, Final residual = 9.77772e-09, No Iterations 1
PIMPLE: iteration 3
MULES: Solving for alpha.air
MULES: Solving for alpha.air
alpha.air volume fraction = 0.29357  Min(alpha.air) = 2.38099e-30  Max(alpha.air) = 1
Constructing momentum equations
smoothSolver:  Solving for e.air, Initial residual = 0.000629041, Final residual = 1.25462e-10, No Iterations 2
smoothSolver:  Solving for e.water, Initial residual = 3.09299e-06, Final residual = 1.47619e-09, No Iterations 1
min T.air 299.827
min T.water 299.827
GAMG:  Solving for p_rgh, Initial residual = 2.07182e-07, Final residual = 5.62566e-09, No Iterations 1
ExecutionTime = 61.51 s


Courant Number mean: 0.054107 max: 0.166277
Max Ur Courant Number = 0.212351
Time = 9.955

PIMPLE: iteration 1
MULES: Solving for alpha.air
MULES: Solving for alpha.air
alpha.air volume fraction = 0.29357  Min(alpha.air) = 2.12826e-30  Max(alpha.air) = 1
Constructing momentum equations
smoothSolver:  Solving for e.air, Initial residual = 0.00130558, Final residual = 4.57533e-10, No Iterations 2
smoothSolver:  Solving for e.water, Initial residual = 0.000561871, Final residual = 9.67742e-10, No Iterations 2
min T.air 299.827
min T.water 299.827
GAMG:  Solving for p_rgh, Initial residual = 1.05325e-06, Final residual = 2.04564e-09, No Iterations 2
PIMPLE: iteration 2
MULES: Solving for alpha.air
MULES: Solving for alpha.air
alpha.air volume fraction = 0.29357  Min(alpha.air) = 2.15507e-30  Max(alpha.air) = 1
Constructing momentum equations
smoothSolver:  Solving for e.air, Initial residual = 0.00235801, Final residual = 1.14664e-10, No Iterations 2
smoothSolver:  Solving for e.water, Initial residual = 1.36158e-05, Final residual = 9.86465e-09, No Iterations 1
min T.air 299.827
min T.water 299.827
GAMG:  Solving for p_rgh, Initial residual = 4.58379e-07, Final residual = 9.03229e-09, No Iterations 1
PIMPLE: iteration 3
MULES: Solving for alpha.air
MULES: Solving for alpha.air
alpha.air volume fraction = 0.29357  Min(alpha.air) = 2.15221e-30  Max(alpha.air) = 1
Constructing momentum equations
smoothSolver:  Solving for e.air, Initial residual = 0.000567312, Final residual = 9.87691e-11, No Iterations 2
smoothSolver:  Solving for e.water, Initial residual = 3.3367e-06, Final residual = 1.59377e-09, No Iterations 1
min T.air 299.827
min T.water 299.827
GAMG:  Solving for p_rgh, Initial residual = 2.10247e-07, Final residual = 5.07693e-09, No Iterations 1
ExecutionTime = 61.53 s


Courant Number mean: 0.0540636 max: 0.166252
Max Ur Courant Number = 0.21202
Time = 9.96

PIMPLE: iteration 1
MULES: Solving for alpha.air
MULES: Solving for alpha.air
alpha.air volume fraction = 0.29357  Min(alpha.air) = 1.92373e-30  Max(alpha.air) = 1
Constructing momentum equations
smoothSolver:  Solving for e.air, Initial residual = 0.00132264, Final residual = 4.06071e-10, No Iterations 2
smoothSolver:  Solving for e.water, Initial residual = 0.000559178, Final residual = 9.5822e-10, No Iterations 2
min T.air 299.827
min T.water 299.827
GAMG:  Solving for p_rgh, Initial residual = 9.08602e-07, Final residual = 1.80709e-09, No Iterations 2
PIMPLE: iteration 2
MULES: Solving for alpha.air
MULES: Solving for alpha.air
alpha.air volume fraction = 0.29357  Min(alpha.air) = 1.94798e-30  Max(alpha.air) = 1
Constructing momentum equations
smoothSolver:  Solving for e.air, Initial residual = 0.00230453, Final residual = 1.12096e-10, No Iterations 2
smoothSolver:  Solving for e.water, Initial residual = 1.3647e-05, Final residual = 2.6407e-11, No Iterations 2
min T.air 299.827
min T.water 299.827
GAMG:  Solving for p_rgh, Initial residual = 4.44758e-07, Final residual = 8.1738e-09, No Iterations 1
PIMPLE: iteration 3
MULES: Solving for alpha.air
MULES: Solving for alpha.air
alpha.air volume fraction = 0.29357  Min(alpha.air) = 1.94539e-30  Max(alpha.air) = 1
Constructing momentum equations
smoothSolver:  Solving for e.air, Initial residual = 0.000592733, Final residual = 9.76259e-11, No Iterations 2
smoothSolver:  Solving for e.water, Initial residual = 2.93778e-06, Final residual = 1.72344e-09, No Iterations 1
min T.air 299.827
min T.water 299.827
GAMG:  Solving for p_rgh, Initial residual = 2.28021e-07, Final residual = 4.49009e-09, No Iterations 1
ExecutionTime = 61.56 s


Courant Number mean: 0.0540217 max: 0.166216
Max Ur Courant Number = 0.211795
Time = 9.965

PIMPLE: iteration 1
MULES: Solving for alpha.air
MULES: Solving for alpha.air
alpha.air volume fraction = 0.29357  Min(alpha.air) = 1.73885e-30  Max(alpha.air) = 1
Constructing momentum equations
smoothSolver:  Solving for e.air, Initial residual = 0.0012779, Final residual = 3.91156e-10, No Iterations 2
smoothSolver:  Solving for e.water, Initial residual = 0.00055672, Final residual = 9.55502e-10, No Iterations 2
min T.air 299.827
min T.water 299.827
GAMG:  Solving for p_rgh, Initial residual = 9.43215e-07, Final residual = 1.84503e-09, No Iterations 2
PIMPLE: iteration 2
MULES: Solving for alpha.air
MULES: Solving for alpha.air
alpha.air volume fraction = 0.29357  Min(alpha.air) = 1.76076e-30  Max(alpha.air) = 1
Constructing momentum equations
smoothSolver:  Solving for e.air, Initial residual = 0.00225477, Final residual = 1.06206e-10, No Iterations 2
smoothSolver:  Solving for e.water, Initial residual = 1.3834e-05, Final residual = 2.55561e-11, No Iterations 2
min T.air 299.827
min T.water 299.827
GAMG:  Solving for p_rgh, Initial residual = 4.95951e-07, Final residual = 4.67412e-09, No Iterations 2
PIMPLE: iteration 3
MULES: Solving for alpha.air
MULES: Solving for alpha.air
alpha.air volume fraction = 0.29357  Min(alpha.air) = 1.75843e-30  Max(alpha.air) = 1
Constructing momentum equations
smoothSolver:  Solving for e.air, Initial residual = 0.000491701, Final residual = 5.54928e-11, No Iterations 2
smoothSolver:  Solving for e.water, Initial residual = 3.4305e-06, Final residual = 1.6629e-09, No Iterations 1
min T.air 299.827
min T.water 299.827
GAMG:  Solving for p_rgh, Initial residual = 2.46821e-07, Final residual = 5.15824e-09, No Iterations 1
ExecutionTime = 61.59 s


Courant Number mean: 0.0539804 max: 0.166167
Max Ur Courant Number = 0.211736
Time = 9.97

PIMPLE: iteration 1
MULES: Solving for alpha.air
MULES: Solving for alpha.air
alpha.air volume fraction = 0.29357  Min(alpha.air) = 1.5717e-30  Max(alpha.air) = 1
Constructing momentum equations
smoothSolver:  Solving for e.air, Initial residual = 0.00134264, Final residual = 3.49832e-10, No Iterations 2
smoothSolver:  Solving for e.water, Initial residual = 0.00055414, Final residual = 9.546e-10, No Iterations 2
min T.air 299.827
min T.water 299.827
GAMG:  Solving for p_rgh, Initial residual = 8.97646e-07, Final residual = 3.97529e-09, No Iterations 2
PIMPLE: iteration 2
MULES: Solving for alpha.air
MULES: Solving for alpha.air
alpha.air volume fraction = 0.29357  Min(alpha.air) = 1.59153e-30  Max(alpha.air) = 1
Constructing momentum equations
smoothSolver:  Solving for e.air, Initial residual = 0.0022658, Final residual = 1.09023e-10, No Iterations 2
smoothSolver:  Solving for e.water, Initial residual = 1.35516e-05, Final residual = 9.90876e-09, No Iterations 1
min T.air 299.827
min T.water 299.827
GAMG:  Solving for p_rgh, Initial residual = 4.18971e-07, Final residual = 3.36876e-09, No Iterations 2
PIMPLE: iteration 3
MULES: Solving for alpha.air
MULES: Solving for alpha.air
alpha.air volume fraction = 0.29357  Min(alpha.air) = 1.5894e-30  Max(alpha.air) = 1
Constructing momentum equations
smoothSolver:  Solving for e.air, Initial residual = 0.000561726, Final residual = 7.47399e-11, No Iterations 2
smoothSolver:  Solving for e.water, Initial residual = 3.12756e-06, Final residual = 1.46363e-09, No Iterations 1
min T.air 299.827
min T.water 299.827
GAMG:  Solving for p_rgh, Initial residual = 2.04423e-07, Final residual = 3.15409e-09, No Iterations 1
ExecutionTime = 61.62 s


Courant Number mean: 0.0539396 max: 0.166102
Max Ur Courant Number = 0.211809
Time = 9.975

PIMPLE: iteration 1
MULES: Solving for alpha.air
MULES: Solving for alpha.air
alpha.air volume fraction = 0.29357  Min(alpha.air) = 1.42061e-30  Max(alpha.air) = 1
Constructing momentum equations
smoothSolver:  Solving for e.air, Initial residual = 0.0012989, Final residual = 3.00264e-10, No Iterations 2
smoothSolver:  Solving for e.water, Initial residual = 0.000551818, Final residual = 9.4713e-10, No Iterations 2
min T.air 299.827
min T.water 299.827
GAMG:  Solving for p_rgh, Initial residual = 9.2857e-07, Final residual = 3.46711e-09, No Iterations 2
PIMPLE: iteration 2
MULES: Solving for alpha.air
MULES: Solving for alpha.air
alpha.air volume fraction = 0.29357  Min(alpha.air) = 1.43854e-30  Max(alpha.air) = 1
Constructing momentum equations
smoothSolver:  Solving for e.air, Initial residual = 0.00226154, Final residual = 9.21173e-11, No Iterations 2
smoothSolver:  Solving for e.water, Initial residual = 1.35851e-05, Final residual = 2.5659e-11, No Iterations 2
min T.air 299.827
min T.water 299.827
GAMG:  Solving for p_rgh, Initial residual = 4.50783e-07, Final residual = 1.95331e-09, No Iterations 2
PIMPLE: iteration 3
MULES: Solving for alpha.air
MULES: Solving for alpha.air
alpha.air volume fraction = 0.29357  Min(alpha.air) = 1.43663e-30  Max(alpha.air) = 1
Constructing momentum equations
smoothSolver:  Solving for e.air, Initial residual = 0.000521143, Final residual = 5.22812e-11, No Iterations 2
smoothSolver:  Solving for e.water, Initial residual = 4.52574e-06, Final residual = 1.69729e-09, No Iterations 1
min T.air 299.827
min T.water 299.827
GAMG:  Solving for p_rgh, Initial residual = 2.65865e-07, Final residual = 3.43814e-09, No Iterations 1
ExecutionTime = 61.65 s


Courant Number mean: 0.0539005 max: 0.166024
Max Ur Courant Number = 0.211873
Time = 9.98

PIMPLE: iteration 1
MULES: Solving for alpha.air
MULES: Solving for alpha.air
alpha.air volume fraction = 0.29357  Min(alpha.air) = 1.28405e-30  Max(alpha.air) = 1
Constructing momentum equations
smoothSolver:  Solving for e.air, Initial residual = 0.00138534, Final residual = 2.59578e-10, No Iterations 2
smoothSolver:  Solving for e.water, Initial residual = 0.000550807, Final residual = 9.45427e-10, No Iterations 2
min T.air 299.827
min T.water 299.827
GAMG:  Solving for p_rgh, Initial residual = 9.89363e-07, Final residual = 2.31912e-09, No Iterations 2
PIMPLE: iteration 2
MULES: Solving for alpha.air
MULES: Solving for alpha.air
alpha.air volume fraction = 0.29357  Min(alpha.air) = 1.30025e-30  Max(alpha.air) = 1
Constructing momentum equations
smoothSolver:  Solving for e.air, Initial residual = 0.00235244, Final residual = 9.22997e-11, No Iterations 2
smoothSolver:  Solving for e.water, Initial residual = 1.3294e-05, Final residual = 2.37781e-11, No Iterations 2
min T.air 299.828
min T.water 299.827
GAMG:  Solving for p_rgh, Initial residual = 3.85558e-07, Final residual = 8.09985e-09, No Iterations 1
PIMPLE: iteration 3
MULES: Solving for alpha.air
MULES: Solving for alpha.air
alpha.air volume fraction = 0.29357  Min(alpha.air) = 1.29852e-30  Max(alpha.air) = 1
Constructing momentum equations
smoothSolver:  Solving for e.air, Initial residual = 0.000440281, Final residual = 7.1384e-11, No Iterations 2
smoothSolver:  Solving for e.water, Initial residual = 3.19066e-06, Final residual = 1.48191e-09, No Iterations 1
min T.air 299.828
min T.water 299.828
GAMG:  Solving for p_rgh, Initial residual = 1.47164e-07, Final residual = 3.69558e-09, No Iterations 1
ExecutionTime = 61.68 s


Courant Number mean: 0.0538633 max: 0.165934
Max Ur Courant Number = 0.212083
Time = 9.985

PIMPLE: iteration 1
MULES: Solving for alpha.air
MULES: Solving for alpha.air
alpha.air volume fraction = 0.29357  Min(alpha.air) = 1.1606e-30  Max(alpha.air) = 1
Constructing momentum equations
smoothSolver:  Solving for e.air, Initial residual = 0.00130753, Final residual = 2.21943e-10, No Iterations 2
smoothSolver:  Solving for e.water, Initial residual = 0.000550415, Final residual = 9.37886e-10, No Iterations 2
min T.air 299.828
min T.water 299.828
GAMG:  Solving for p_rgh, Initial residual = 1.10709e-06, Final residual = 3.76778e-09, No Iterations 2
PIMPLE: iteration 2
MULES: Solving for alpha.air
MULES: Solving for alpha.air
alpha.air volume fraction = 0.29357  Min(alpha.air) = 1.17524e-30  Max(alpha.air) = 1
Constructing momentum equations
smoothSolver:  Solving for e.air, Initial residual = 0.00250477, Final residual = 7.89479e-11, No Iterations 2
smoothSolver:  Solving for e.water, Initial residual = 1.32168e-05, Final residual = 2.25483e-11, No Iterations 2
min T.air 299.828
min T.water 299.828
GAMG:  Solving for p_rgh, Initial residual = 4.32759e-07, Final residual = 8.88234e-09, No Iterations 1
PIMPLE: iteration 3
MULES: Solving for alpha.air
MULES: Solving for alpha.air
alpha.air volume fraction = 0.29357  Min(alpha.air) = 1.17369e-30  Max(alpha.air) = 1
Constructing momentum equations
smoothSolver:  Solving for e.air, Initial residual = 0.000443098, Final residual = 5.80616e-11, No Iterations 2
smoothSolver:  Solving for e.water, Initial residual = 2.97677e-06, Final residual = 1.84921e-09, No Iterations 1
min T.air 299.828
min T.water 299.828
GAMG:  Solving for p_rgh, Initial residual = 1.62691e-07, Final residual = 4.22501e-09, No Iterations 1
ExecutionTime = 61.71 s


Courant Number mean: 0.0538279 max: 0.16583
Max Ur Courant Number = 0.212296
Time = 9.99

PIMPLE: iteration 1
MULES: Solving for alpha.air
MULES: Solving for alpha.air
alpha.air volume fraction = 0.29357  Min(alpha.air) = 1.04901e-30  Max(alpha.air) = 1
Constructing momentum equations
smoothSolver:  Solving for e.air, Initial residual = 0.00129721, Final residual = 2.0845e-10, No Iterations 2
smoothSolver:  Solving for e.water, Initial residual = 0.00055056, Final residual = 9.2849e-10, No Iterations 2
min T.air 299.828
min T.water 299.828
GAMG:  Solving for p_rgh, Initial residual = 1.17589e-06, Final residual = 3.46655e-09, No Iterations 2
PIMPLE: iteration 2
MULES: Solving for alpha.air
MULES: Solving for alpha.air
alpha.air volume fraction = 0.29357  Min(alpha.air) = 1.06226e-30  Max(alpha.air) = 1
Constructing momentum equations
smoothSolver:  Solving for e.air, Initial residual = 0.00249152, Final residual = 9.19903e-11, No Iterations 2
smoothSolver:  Solving for e.water, Initial residual = 1.39137e-05, Final residual = 2.16943e-11, No Iterations 2
min T.air 299.828
min T.water 299.828
GAMG:  Solving for p_rgh, Initial residual = 4.5672e-07, Final residual = 8.40942e-09, No Iterations 1
PIMPLE: iteration 3
MULES: Solving for alpha.air
MULES: Solving for alpha.air
alpha.air volume fraction = 0.29357  Min(alpha.air) = 1.06084e-30  Max(alpha.air) = 1
Constructing momentum equations
smoothSolver:  Solving for e.air, Initial residual = 0.000504733, Final residual = 7.31025e-11, No Iterations 2
smoothSolver:  Solving for e.water, Initial residual = 3.45547e-06, Final residual = 1.88697e-09, No Iterations 1
min T.air 299.828
min T.water 299.828
GAMG:  Solving for p_rgh, Initial residual = 1.86305e-07, Final residual = 4.14044e-09, No Iterations 1
ExecutionTime = 61.73 s


Courant Number mean: 0.0537934 max: 0.165799
Max Ur Courant Number = 0.212532
Time = 9.995

PIMPLE: iteration 1
MULES: Solving for alpha.air
MULES: Solving for alpha.air
alpha.air volume fraction = 0.29357  Min(alpha.air) = 9.48148e-31  Max(alpha.air) = 1
Constructing momentum equations
smoothSolver:  Solving for e.air, Initial residual = 0.00131707, Final residual = 2.86022e-10, No Iterations 2
smoothSolver:  Solving for e.water, Initial residual = 0.000550033, Final residual = 9.18759e-10, No Iterations 2
min T.air 299.828
min T.water 299.828
GAMG:  Solving for p_rgh, Initial residual = 1.28299e-06, Final residual = 1.61371e-09, No Iterations 2
PIMPLE: iteration 2
MULES: Solving for alpha.air
MULES: Solving for alpha.air
alpha.air volume fraction = 0.29357  Min(alpha.air) = 9.60109e-31  Max(alpha.air) = 1
Constructing momentum equations
smoothSolver:  Solving for e.air, Initial residual = 0.00246524, Final residual = 7.42575e-11, No Iterations 2
smoothSolver:  Solving for e.water, Initial residual = 1.49118e-05, Final residual = 2.13551e-11, No Iterations 2
min T.air 299.828
min T.water 299.828
GAMG:  Solving for p_rgh, Initial residual = 5.3332e-07, Final residual = 9.01674e-09, No Iterations 1
PIMPLE: iteration 3
MULES: Solving for alpha.air
MULES: Solving for alpha.air
alpha.air volume fraction = 0.29357  Min(alpha.air) = 9.58835e-31  Max(alpha.air) = 1
Constructing momentum equations
smoothSolver:  Solving for e.air, Initial residual = 0.000632969, Final residual = 8.97576e-11, No Iterations 2
smoothSolver:  Solving for e.water, Initial residual = 3.79549e-06, Final residual = 1.98102e-09, No Iterations 1
min T.air 299.828
min T.water 299.828
GAMG:  Solving for p_rgh, Initial residual = 2.54675e-07, Final residual = 4.98053e-09, No Iterations 1
ExecutionTime = 61.76 s


Courant Number mean: 0.0537627 max: 0.165899
Max Ur Courant Number = 0.212743
Time = 10

PIMPLE: iteration 1
MULES: Solving for alpha.air
MULES: Solving for alpha.air
alpha.air volume fraction = 0.29357  Min(alpha.air) = 8.56963e-31  Max(alpha.air) = 1
Constructing momentum equations
smoothSolver:  Solving for e.air, Initial residual = 0.00137068, Final residual = 2.75043e-10, No Iterations 2
smoothSolver:  Solving for e.water, Initial residual = 0.000548449, Final residual = 9.11209e-10, No Iterations 2
min T.air 299.828
min T.water 299.828
GAMG:  Solving for p_rgh, Initial residual = 1.36944e-06, Final residual = 1.79154e-09, No Iterations 2
PIMPLE: iteration 2
MULES: Solving for alpha.air
MULES: Solving for alpha.air
alpha.air volume fraction = 0.29357  Min(alpha.air) = 8.67786e-31  Max(alpha.air) = 1
Constructing momentum equations
smoothSolver:  Solving for e.air, Initial residual = 0.00253527, Final residual = 1.07725e-10, No Iterations 2
smoothSolver:  Solving for e.water, Initial residual = 1.44427e-05, Final residual = 2.22502e-11, No Iterations 2
min T.air 299.828
min T.water 299.828
GAMG:  Solving for p_rgh, Initial residual = 5.04426e-07, Final residual = 9.1234e-09, No Iterations 1
PIMPLE: iteration 3
MULES: Solving for alpha.air
MULES: Solving for alpha.air
alpha.air volume fraction = 0.29357  Min(alpha.air) = 8.66627e-31  Max(alpha.air) = 1
Constructing momentum equations
smoothSolver:  Solving for e.air, Initial residual = 0.000638589, Final residual = 1.04964e-10, No Iterations 2
smoothSolver:  Solving for e.water, Initial residual = 3.5825e-06, Final residual = 1.96625e-09, No Iterations 1
min T.air 299.828
min T.water 299.828
GAMG:  Solving for p_rgh, Initial residual = 2.41032e-07, Final residual = 4.53688e-09, No Iterations 1
ExecutionTime = 61.81 s


End

