/*---------------------------------------------------------------------------*\
| =========                 |                                                 |
| \\      /  F ield         | OpenFOAM: The Open Source CFD Toolbox           |
|  \\    /   O peration     | Version:  v1712                                 |
|   \\  /    A nd           | Web:      www.OpenFOAM.com                      |
|    \\/     M anipulation  |                                                 |
\*---------------------------------------------------------------------------*/
Build  : v1712
Arch   : "LSB;label=32;scalar=64"
Exec   : driftFluxFoam
Date   : Jan 04 2018
Time   : 23:15:08
Host   : "inabower-PC"
PID    : 8831
I/O    : uncollated
Case   : /media/inabower/3C9455F89455B55C/inabower/tutorials-v1712/multiphase/driftFluxFoam/RAS/dahl
nProcs : 1
trapFpe: Floating point exception trapping enabled (FOAM_SIGFPE).
fileModificationChecking : Monitoring run-time modified files using timeStampMaster (fileModificationSkew 10)
allowSystemOperations : Allowing user-supplied system call operations

// * * * * * * * * * * * * * * * * * * * * * * * * * * * * * * * * * * * * * //
Create time

Create mesh for time = 0


PIMPLE: Operating solver in PISO mode

Reading field p_rgh

Reading field U

Reading/calculating face flux field phi

Reading incompressibleTwoPhaseInteractingMixture

Selecting incompressible transport model BinghamPlastic
Selecting incompressible transport model Newtonian
Selecting relative velocity model simple
Selecting turbulence model type RAS
Selecting RAS turbulence model buoyantKEpsilon
buoyantKEpsilonCoeffs
{
    Cg              0.85;
    Cmu             0.09;
    C1              1.44;
    C2              1.92;
    C3              0;
    sigmak          1;
    sigmaEps        1.3;
}


Reading g

Reading hRef
Calculating field g.h

No MRF models present

No finite volume options present


Starting time loop

Courant Number mean: 0.0440514 max: 0.0441618
deltaT = 0.119904
Time = 0.119904

PIMPLE: iteration 1
smoothSolver:  Solving for alpha.sludge, Initial residual = 1, Final residual = 2.8577e-13, No Iterations 1
Phase-1 volume fraction = 0.00100026  Min(alpha.sludge) = 0.001  Max(alpha.sludge) = 0.00105295
MULES: Correcting alpha.sludge
MULES: Correcting alpha.sludge
Phase-1 volume fraction = 0.00100026  Min(alpha.sludge) = 0.000994554  Max(alpha.sludge) = 0.00105885
DICPCG:  Solving for alpha.sludge, Initial residual = 0.106022, Final residual = 1.70154e-07, No Iterations 3
Phase-1 volume fraction = 0.00100026  Min(alpha.sludge) = 0.000995507  Max(alpha.sludge) = 0.00105388
GAMG:  Solving for p_rgh, Initial residual = 1, Final residual = 0.00528997, No Iterations 6
time step continuity errors : sum local = 1.36662e-06, global = -3.63453e-07, cumulative = -3.63453e-07
GAMG:  Solving for p_rgh, Initial residual = 0.036054, Final residual = 0.00014641, No Iterations 6
time step continuity errors : sum local = 9.82896e-07, global = 4.35623e-08, cumulative = -3.1989e-07
GAMG:  Solving for p_rgh, Initial residual = 0.0169042, Final residual = 4.47046e-08, No Iterations 12
time step continuity errors : sum local = 1.49848e-10, global = 6.85995e-12, cumulative = -3.19883e-07
DILUPBiCGStab:  Solving for epsilon, Initial residual = 0.145209, Final residual = 4.26238e-08, No Iterations 5
DILUPBiCGStab:  Solving for k, Initial residual = 1, Final residual = 2.89163e-08, No Iterations 6
ExecutionTime = 0.08 s  ClockTime = 0 s

Courant Number mean: 0.0576799 max: 1.08872
deltaT = 0.143747
Time = 0.263651

PIMPLE: iteration 1
smoothSolver:  Solving for alpha.sludge, Initial residual = 0.0105013, Final residual = 2.48813e-08, No Iterations 2
Phase-1 volume fraction = 0.00100025  Min(alpha.sludge) = 0.000995507  Max(alpha.sludge) = 0.00104888
Applying the previous iteration correction flux
MULES: Correcting alpha.sludge
MULES: Correcting alpha.sludge
MULES: Correcting alpha.sludge
Phase-1 volume fraction = 0.00100025  Min(alpha.sludge) = 0.000988997  Max(alpha.sludge) = 0.00104889
DICPCG:  Solving for alpha.sludge, Initial residual = 0.0802941, Final residual = 9.53424e-07, No Iterations 3
Phase-1 volume fraction = 0.00100025  Min(alpha.sludge) = 0.000990437  Max(alpha.sludge) = 0.00104835
GAMG:  Solving for p_rgh, Initial residual = 0.280404, Final residual = 0.00237983, No Iterations 5
time step continuity errors : sum local = 6.41123e-06, global = 1.00642e-06, cumulative = 6.86541e-07
GAMG:  Solving for p_rgh, Initial residual = 0.0877394, Final residual = 0.000532042, No Iterations 5
time step continuity errors : sum local = 3.1592e-07, global = 6.01759e-09, cumulative = 6.92559e-07
GAMG:  Solving for p_rgh, Initial residual = 0.0390094, Final residual = 8.05866e-08, No Iterations 14
time step continuity errors : sum local = 3.9929e-11, global = 2.318e-11, cumulative = 6.92582e-07
DILUPBiCGStab:  Solving for epsilon, Initial residual = 0.0538662, Final residual = 3.28094e-08, No Iterations 4
DILUPBiCGStab:  Solving for k, Initial residual = 0.373601, Final residual = 6.90441e-08, No Iterations 5
ExecutionTime = 0.13 s  ClockTime = 0 s

Courant Number mean: 0.0692409 max: 1.16994
deltaT = 0.172696
Time = 0.436346

PIMPLE: iteration 1
smoothSolver:  Solving for alpha.sludge, Initial residual = 0.00655273, Final residual = 2.11824e-07, No Iterations 2
Phase-1 volume fraction = 0.00100024  Min(alpha.sludge) = 0.000990446  Max(alpha.sludge) = 0.00104816
Applying the previous iteration correction flux
MULES: Correcting alpha.sludge
MULES: Correcting alpha.sludge
MULES: Correcting alpha.sludge
Phase-1 volume fraction = 0.00100024  Min(alpha.sludge) = 0.000982633  Max(alpha.sludge) = 0.00104818
DICPCG:  Solving for alpha.sludge, Initial residual = 0.10014, Final residual = 5.3177e-07, No Iterations 4
Phase-1 volume fraction = 0.00100024  Min(alpha.sludge) = 0.000984744  Max(alpha.sludge) = 0.00104757
GAMG:  Solving for p_rgh, Initial residual = 0.239056, Final residual = 0.00163681, No Iterations 3
time step continuity errors : sum local = 9.37129e-07, global = 1.56281e-07, cumulative = 8.48863e-07
GAMG:  Solving for p_rgh, Initial residual = 0.0374668, Final residual = 0.00036761, No Iterations 4
time step continuity errors : sum local = 2.00751e-07, global = 5.80722e-09, cumulative = 8.54671e-07
GAMG:  Solving for p_rgh, Initial residual = 0.0135042, Final residual = 6.50655e-08, No Iterations 14
time step continuity errors : sum local = 3.5396e-11, global = 9.05279e-15, cumulative = 8.54671e-07
DILUPBiCGStab:  Solving for epsilon, Initial residual = 0.0693741, Final residual = 1.91247e-08, No Iterations 5
DILUPBiCGStab:  Solving for k, Initial residual = 0.213194, Final residual = 2.67802e-08, No Iterations 5
ExecutionTime = 0.17 s  ClockTime = 0 s

Courant Number mean: 0.083211 max: 1.33273
deltaT = 0.207379
Time = 0.643726

PIMPLE: iteration 1
smoothSolver:  Solving for alpha.sludge, Initial residual = 0.00437404, Final residual = 9.83939e-07, No Iterations 2
Phase-1 volume fraction = 0.00100023  Min(alpha.sludge) = 0.000984784  Max(alpha.sludge) = 0.00104733
Applying the previous iteration correction flux
MULES: Correcting alpha.sludge
MULES: Correcting alpha.sludge
MULES: Correcting alpha.sludge
Phase-1 volume fraction = 0.00100023  Min(alpha.sludge) = 0.000975411  Max(alpha.sludge) = 0.00104736
DICPCG:  Solving for alpha.sludge, Initial residual = 0.114574, Final residual = 7.39185e-07, No Iterations 4
Phase-1 volume fraction = 0.00100023  Min(alpha.sludge) = 0.000978676  Max(alpha.sludge) = 0.00104667
GAMG:  Solving for p_rgh, Initial residual = 0.186026, Final residual = 0.000782556, No Iterations 3
time step continuity errors : sum local = 5.67137e-07, global = -3.75385e-08, cumulative = 8.17132e-07
GAMG:  Solving for p_rgh, Initial residual = 0.0251817, Final residual = 0.000123741, No Iterations 4
time step continuity errors : sum local = 7.77991e-08, global = -8.08438e-09, cumulative = 8.09048e-07
GAMG:  Solving for p_rgh, Initial residual = 0.0064818, Final residual = 5.0399e-08, No Iterations 12
time step continuity errors : sum local = 3.21645e-11, global = 2.31882e-12, cumulative = 8.0905e-07
DILUPBiCGStab:  Solving for epsilon, Initial residual = 0.0699429, Final residual = 2.54332e-08, No Iterations 5
DILUPBiCGStab:  Solving for k, Initial residual = 0.0989348, Final residual = 8.2667e-09, No Iterations 6
ExecutionTime = 0.21 s  ClockTime = 0 s

Courant Number mean: 0.0999193 max: 1.56942
deltaT = 0.249274
Time = 0.893

PIMPLE: iteration 1
smoothSolver:  Solving for alpha.sludge, Initial residual = 0.00333894, Final residual = 1.04201e-08, No Iterations 3
Phase-1 volume fraction = 0.00100022  Min(alpha.sludge) = 0.000978765  Max(alpha.sludge) = 0.00104637
Applying the previous iteration correction flux
MULES: Correcting alpha.sludge
MULES: Correcting alpha.sludge
MULES: Correcting alpha.sludge
Phase-1 volume fraction = 0.00100022  Min(alpha.sludge) = 0.000967514  Max(alpha.sludge) = 0.00104643
DICPCG:  Solving for alpha.sludge, Initial residual = 0.128158, Final residual = 5.02211e-07, No Iterations 4
Phase-1 volume fraction = 0.00100022  Min(alpha.sludge) = 0.000971726  Max(alpha.sludge) = 0.00104564
GAMG:  Solving for p_rgh, Initial residual = 0.130034, Final residual = 0.000541987, No Iterations 3
time step continuity errors : sum local = 5.05603e-07, global = -4.64908e-08, cumulative = 7.62559e-07
GAMG:  Solving for p_rgh, Initial residual = 0.0202693, Final residual = 0.000202165, No Iterations 3
time step continuity errors : sum local = 1.77395e-07, global = -2.93229e-08, cumulative = 7.33236e-07
GAMG:  Solving for p_rgh, Initial residual = 0.00601061, Final residual = 5.48063e-08, No Iterations 13
time step continuity errors : sum local = 4.89046e-11, global = 3.09639e-11, cumulative = 7.33267e-07
DILUPBiCGStab:  Solving for epsilon, Initial residual = 0.0333602, Final residual = 3.14108e-08, No Iterations 5
DILUPBiCGStab:  Solving for k, Initial residual = 0.0673403, Final residual = 6.5532e-08, No Iterations 5
ExecutionTime = 0.25 s  ClockTime = 0 s

Courant Number mean: 0.120116 max: 1.87711
deltaT = 0.299433
Time = 1.19243

PIMPLE: iteration 1
smoothSolver:  Solving for alpha.sludge, Initial residual = 0.00317584, Final residual = 2.70041e-08, No Iterations 3
Phase-1 volume fraction = 0.00100021  Min(alpha.sludge) = 0.000971761  Max(alpha.sludge) = 0.0010453
Applying the previous iteration correction flux
MULES: Correcting alpha.sludge
MULES: Correcting alpha.sludge
MULES: Correcting alpha.sludge
Phase-1 volume fraction = 0.00100021  Min(alpha.sludge) = 0.000958288  Max(alpha.sludge) = 0.00105233
DICPCG:  Solving for alpha.sludge, Initial residual = 0.141018, Final residual = 2.1835e-07, No Iterations 4
Phase-1 volume fraction = 0.00100021  Min(alpha.sludge) = 0.000962864  Max(alpha.sludge) = 0.00105138
GAMG:  Solving for p_rgh, Initial residual = 0.0825923, Final residual = 0.000336027, No Iterations 3
time step continuity errors : sum local = 4.09855e-07, global = -2.52634e-08, cumulative = 7.08004e-07
GAMG:  Solving for p_rgh, Initial residual = 0.0114624, Final residual = 9.49197e-05, No Iterations 3
time step continuity errors : sum local = 1.1081e-07, global = -1.80378e-08, cumulative = 6.89966e-07
GAMG:  Solving for p_rgh, Initial residual = 0.00380834, Final residual = 3.51482e-08, No Iterations 13
time step continuity errors : sum local = 4.12773e-11, global = -2.93417e-12, cumulative = 6.89963e-07
DILUPBiCGStab:  Solving for epsilon, Initial residual = 0.0234513, Final residual = 4.16377e-08, No Iterations 6
DILUPBiCGStab:  Solving for k, Initial residual = 0.0673221, Final residual = 9.59601e-08, No Iterations 6
ExecutionTime = 0.29 s  ClockTime = 0 s

Courant Number mean: 0.144305 max: 2.23778
deltaT = 0.358879
Time = 1.55131

PIMPLE: iteration 1
smoothSolver:  Solving for alpha.sludge, Initial residual = 0.00294958, Final residual = 5.64931e-08, No Iterations 3
Phase-1 volume fraction = 0.0010002  Min(alpha.sludge) = 0.000963028  Max(alpha.sludge) = 0.00105128
Applying the previous iteration correction flux
MULES: Correcting alpha.sludge
MULES: Correcting alpha.sludge
MULES: Correcting alpha.sludge
Phase-1 volume fraction = 0.00100019  Min(alpha.sludge) = 0.000946882  Max(alpha.sludge) = 0.00106797
DICPCG:  Solving for alpha.sludge, Initial residual = 0.153721, Final residual = 4.42678e-07, No Iterations 4
Phase-1 volume fraction = 0.00100019  Min(alpha.sludge) = 0.00095305  Max(alpha.sludge) = 0.00106653
GAMG:  Solving for p_rgh, Initial residual = 0.0509969, Final residual = 0.000270371, No Iterations 3
time step continuity errors : sum local = 4.20965e-07, global = -6.44381e-09, cumulative = 6.83519e-07
GAMG:  Solving for p_rgh, Initial residual = 0.00745344, Final residual = 7.1503e-05, No Iterations 3
time step continuity errors : sum local = 1.10588e-07, global = -1.33199e-08, cumulative = 6.702e-07
GAMG:  Solving for p_rgh, Initial residual = 0.0027281, Final residual = 6.1064e-08, No Iterations 14
time step continuity errors : sum local = 9.4823e-11, global = -6.61906e-11, cumulative = 6.70133e-07
DILUPBiCGStab:  Solving for epsilon, Initial residual = 0.0206943, Final residual = 6.86702e-08, No Iterations 6
DILUPBiCGStab:  Solving for k, Initial residual = 0.0759545, Final residual = 3.961e-08, No Iterations 7
ExecutionTime = 0.33 s  ClockTime = 0 s

Courant Number mean: 0.172974 max: 2.7057
deltaT = 0.424988
Time = 1.9763

PIMPLE: iteration 1
smoothSolver:  Solving for alpha.sludge, Initial residual = 0.00293887, Final residual = 1.03297e-07, No Iterations 3
Phase-1 volume fraction = 0.00100018  Min(alpha.sludge) = 0.000953403  Max(alpha.sludge) = 0.00106632
Applying the previous iteration correction flux
MULES: Correcting alpha.sludge
MULES: Correcting alpha.sludge
MULES: Correcting alpha.sludge
Phase-1 volume fraction = 0.00100018  Min(alpha.sludge) = 0.000934316  Max(alpha.sludge) = 0.00108623
DICPCG:  Solving for alpha.sludge, Initial residual = 0.16482, Final residual = 9.67901e-07, No Iterations 4
Phase-1 volume fraction = 0.00100018  Min(alpha.sludge) = 0.000942338  Max(alpha.sludge) = 0.00108408
GAMG:  Solving for p_rgh, Initial residual = 0.0371395, Final residual = 0.000295411, No Iterations 3
time step continuity errors : sum local = 5.91786e-07, global = -1.70752e-08, cumulative = 6.53058e-07
GAMG:  Solving for p_rgh, Initial residual = 0.00566243, Final residual = 2.23409e-05, No Iterations 4
time step continuity errors : sum local = 4.48751e-08, global = 1.09797e-09, cumulative = 6.54156e-07
GAMG:  Solving for p_rgh, Initial residual = 0.00207249, Final residual = 9.11858e-08, No Iterations 14
time step continuity errors : sum local = 1.83531e-10, global = -1.21784e-11, cumulative = 6.54144e-07
DILUPBiCGStab:  Solving for epsilon, Initial residual = 0.0246972, Final residual = 6.69096e-08, No Iterations 6
DILUPBiCGStab:  Solving for k, Initial residual = 0.0838639, Final residual = 7.32669e-08, No Iterations 7
ExecutionTime = 0.37 s  ClockTime = 0 s

Courant Number mean: 0.204855 max: 3.23572
deltaT = 0.490038
Time = 2.46634

PIMPLE: iteration 1
smoothSolver:  Solving for alpha.sludge, Initial residual = 0.00312118, Final residual = 1.64155e-07, No Iterations 3
Phase-1 volume fraction = 0.00100016  Min(alpha.sludge) = 0.000942933  Max(alpha.sludge) = 0.0010837
Applying the previous iteration correction flux
MULES: Correcting alpha.sludge
MULES: Correcting alpha.sludge
MULES: Correcting alpha.sludge
Phase-1 volume fraction = 0.00100016  Min(alpha.sludge) = 0.00092098  Max(alpha.sludge) = 0.00110681
DICPCG:  Solving for alpha.sludge, Initial residual = 0.171314, Final residual = 1.14654e-07, No Iterations 5
Phase-1 volume fraction = 0.00100016  Min(alpha.sludge) = 0.000930929  Max(alpha.sludge) = 0.00110378
GAMG:  Solving for p_rgh, Initial residual = 0.0332147, Final residual = 0.000308512, No Iterations 3
time step continuity errors : sum local = 7.70429e-07, global = -1.33885e-08, cumulative = 6.40755e-07
GAMG:  Solving for p_rgh, Initial residual = 0.00414908, Final residual = 2.47932e-05, No Iterations 4
time step continuity errors : sum local = 6.25405e-08, global = -8.28063e-09, cumulative = 6.32475e-07
GAMG:  Solving for p_rgh, Initial residual = 0.00159953, Final residual = 5.62561e-08, No Iterations 14
time step continuity errors : sum local = 1.4199e-10, global = -2.71433e-13, cumulative = 6.32474e-07
DILUPBiCGStab:  Solving for epsilon, Initial residual = 0.0267144, Final residual = 6.73238e-08, No Iterations 7
DILUPBiCGStab:  Solving for k, Initial residual = 0.0881522, Final residual = 4.35565e-08, No Iterations 8
ExecutionTime = 0.43 s  ClockTime = 0 s

Courant Number mean: 0.236225 max: 3.75966
deltaT = 0.552717
Time = 3.01906

PIMPLE: iteration 1
smoothSolver:  Solving for alpha.sludge, Initial residual = 0.00327315, Final residual = 2.42525e-07, No Iterations 3
Phase-1 volume fraction = 0.00100014  Min(alpha.sludge) = 0.000931808  Max(alpha.sludge) = 0.00110328
Applying the previous iteration correction flux
MULES: Correcting alpha.sludge
MULES: Correcting alpha.sludge
MULES: Correcting alpha.sludge
Phase-1 volume fraction = 0.00100013  Min(alpha.sludge) = 0.000907123  Max(alpha.sludge) = 0.00112943
DICPCG:  Solving for alpha.sludge, Initial residual = 0.173589, Final residual = 1.88939e-07, No Iterations 5
Phase-1 volume fraction = 0.00100014  Min(alpha.sludge) = 0.000913586  Max(alpha.sludge) = 0.00112521
GAMG:  Solving for p_rgh, Initial residual = 0.0307217, Final residual = 7.27267e-05, No Iterations 4
time step continuity errors : sum local = 2.21046e-07, global = -3.29464e-08, cumulative = 5.99528e-07
GAMG:  Solving for p_rgh, Initial residual = 0.00318477, Final residual = 3.15258e-05, No Iterations 3
time step continuity errors : sum local = 9.72674e-08, global = 1.40638e-08, cumulative = 6.13592e-07
GAMG:  Solving for p_rgh, Initial residual = 0.00119681, Final residual = 3.38408e-08, No Iterations 12
time step continuity errors : sum local = 1.04294e-10, global = 6.44418e-12, cumulative = 6.13598e-07
DILUPBiCGStab:  Solving for epsilon, Initial residual = 0.0282874, Final residual = 6.78749e-08, No Iterations 7
DILUPBiCGStab:  Solving for k, Initial residual = 0.0873381, Final residual = 9.77407e-08, No Iterations 8
ExecutionTime = 0.48 s  ClockTime = 0 s

Courant Number mean: 0.266452 max: 4.26275
deltaT = 0.61817
Time = 3.63723

PIMPLE: iteration 1
smoothSolver:  Solving for alpha.sludge, Initial residual = 0.00335217, Final residual = 3.55747e-07, No Iterations 3
Phase-1 volume fraction = 0.00100011  Min(alpha.sludge) = 0.000914001  Max(alpha.sludge) = 0.00112492
Applying the previous iteration correction flux
MULES: Correcting alpha.sludge
MULES: Correcting alpha.sludge
MULES: Correcting alpha.sludge
Phase-1 volume fraction = 0.0010001  Min(alpha.sludge) = 0.000886612  Max(alpha.sludge) = 0.00115428
DICPCG:  Solving for alpha.sludge, Initial residual = 0.174424, Final residual = 2.90843e-07, No Iterations 5
Phase-1 volume fraction = 0.0010001  Min(alpha.sludge) = 0.000891265  Max(alpha.sludge) = 0.00114888
GAMG:  Solving for p_rgh, Initial residual = 0.0305722, Final residual = 0.000293374, No Iterations 3
time step continuity errors : sum local = 1.07339e-06, global = 1.19123e-08, cumulative = 6.25511e-07
GAMG:  Solving for p_rgh, Initial residual = 0.00254279, Final residual = 1.52829e-05, No Iterations 4
time step continuity errors : sum local = 5.68308e-08, global = -9.73367e-09, cumulative = 6.15777e-07
GAMG:  Solving for p_rgh, Initial residual = 0.000969628, Final residual = 9.26852e-08, No Iterations 8
time step continuity errors : sum local = 3.44568e-10, global = -1.08792e-10, cumulative = 6.15668e-07
DILUPBiCGStab:  Solving for epsilon, Initial residual = 0.0226082, Final residual = 7.51567e-08, No Iterations 7
DILUPBiCGStab:  Solving for k, Initial residual = 0.0823409, Final residual = 3.52967e-08, No Iterations 8
ExecutionTime = 0.54 s  ClockTime = 0 s

Courant Number mean: 0.298017 max: 4.78424
deltaT = 0.643927
Time = 4.28115

PIMPLE: iteration 1
smoothSolver:  Solving for alpha.sludge, Initial residual = 0.00397889, Final residual = 4.18837e-07, No Iterations 3
Phase-1 volume fraction = 0.00100008  Min(alpha.sludge) = 0.00089231  Max(alpha.sludge) = 0.00114848
Applying the previous iteration correction flux
MULES: Correcting alpha.sludge
MULES: Correcting alpha.sludge
MULES: Correcting alpha.sludge
Phase-1 volume fraction = 0.00100005  Min(alpha.sludge) = 0.000863806  Max(alpha.sludge) = 0.00117917
DICPCG:  Solving for alpha.sludge, Initial residual = 0.160738, Final residual = 2.95677e-07, No Iterations 5
Phase-1 volume fraction = 0.00100005  Min(alpha.sludge) = 0.000869308  Max(alpha.sludge) = 0.0011729
GAMG:  Solving for p_rgh, Initial residual = 0.028393, Final residual = 7.74989e-05, No Iterations 4
time step continuity errors : sum local = 3.12385e-07, global = -5.45025e-08, cumulative = 5.61166e-07
GAMG:  Solving for p_rgh, Initial residual = 0.00184023, Final residual = 5.95474e-06, No Iterations 4
time step continuity errors : sum local = 2.44871e-08, global = -1.79221e-09, cumulative = 5.59373e-07
GAMG:  Solving for p_rgh, Initial residual = 0.000670186, Final residual = 7.28416e-08, No Iterations 15
time step continuity errors : sum local = 2.99346e-10, global = 1.36105e-10, cumulative = 5.5951e-07
DILUPBiCGStab:  Solving for epsilon, Initial residual = 0.0244805, Final residual = 3.61733e-08, No Iterations 8
DILUPBiCGStab:  Solving for k, Initial residual = 0.0773773, Final residual = 7.63891e-08, No Iterations 8
ExecutionTime = 0.59 s  ClockTime = 1 s

Courant Number mean: 0.310443 max: 4.99042
deltaT = 0.643927
Time = 4.92508

PIMPLE: iteration 1
smoothSolver:  Solving for alpha.sludge, Initial residual = 0.00417019, Final residual = 4.18171e-07, No Iterations 3
Phase-1 volume fraction = 0.00100004  Min(alpha.sludge) = 0.000870898  Max(alpha.sludge) = 0.00117236
Applying the previous iteration correction flux
MULES: Correcting alpha.sludge
MULES: Correcting alpha.sludge
MULES: Correcting alpha.sludge
Phase-1 volume fraction = 0.00100004  Min(alpha.sludge) = 0.000842483  Max(alpha.sludge) = 0.00120297
DICPCG:  Solving for alpha.sludge, Initial residual = 0.139923, Final residual = 3.36464e-07, No Iterations 5
Phase-1 volume fraction = 0.00100004  Min(alpha.sludge) = 0.000848575  Max(alpha.sludge) = 0.00119604
GAMG:  Solving for p_rgh, Initial residual = 0.0274641, Final residual = 0.000232257, No Iterations 3
time step continuity errors : sum local = 9.75968e-07, global = 2.9874e-08, cumulative = 5.89384e-07
GAMG:  Solving for p_rgh, Initial residual = 0.00191842, Final residual = 1.372e-05, No Iterations 4
time step continuity errors : sum local = 5.87583e-08, global = 1.96172e-09, cumulative = 5.91345e-07
GAMG:  Solving for p_rgh, Initial residual = 0.000805858, Final residual = 9.15575e-08, No Iterations 14
time step continuity errors : sum local = 3.91708e-10, global = 6.45229e-11, cumulative = 5.9141e-07
DILUPBiCGStab:  Solving for epsilon, Initial residual = 0.0230251, Final residual = 4.5624e-08, No Iterations 8
DILUPBiCGStab:  Solving for k, Initial residual = 0.0715479, Final residual = 6.60637e-08, No Iterations 8
ExecutionTime = 0.65 s  ClockTime = 1 s

Courant Number mean: 0.310452 max: 4.99384
deltaT = 0.643927
Time = 5.56901

PIMPLE: iteration 1
smoothSolver:  Solving for alpha.sludge, Initial residual = 0.00689462, Final residual = 4.25713e-07, No Iterations 3
Phase-1 volume fraction = 0.00100001  Min(alpha.sludge) = 0.000850618  Max(alpha.sludge) = 0.00119558
Applying the previous iteration correction flux
MULES: Correcting alpha.sludge
MULES: Correcting alpha.sludge
MULES: Correcting alpha.sludge
Phase-1 volume fraction = 0.00100014  Min(alpha.sludge) = 0.000822326  Max(alpha.sludge) = 0.0021866
DICPCG:  Solving for alpha.sludge, Initial residual = 0.126833, Final residual = 6.73967e-07, No Iterations 5
Phase-1 volume fraction = 0.00100015  Min(alpha.sludge) = 0.000828951  Max(alpha.sludge) = 0.00180332
GAMG:  Solving for p_rgh, Initial residual = 0.0253286, Final residual = 4.80461e-05, No Iterations 4
time step continuity errors : sum local = 2.1087e-07, global = -9.80952e-09, cumulative = 5.816e-07
GAMG:  Solving for p_rgh, Initial residual = 0.00160078, Final residual = 1.2635e-05, No Iterations 4
time step continuity errors : sum local = 5.65836e-08, global = 3.07331e-08, cumulative = 6.12333e-07
GAMG:  Solving for p_rgh, Initial residual = 0.000716675, Final residual = 9.34568e-08, No Iterations 12
time step continuity errors : sum local = 4.18453e-10, global = -2.17703e-11, cumulative = 6.12312e-07
DILUPBiCGStab:  Solving for epsilon, Initial residual = 0.0248805, Final residual = 5.57321e-08, No Iterations 7
DILUPBiCGStab:  Solving for k, Initial residual = 0.0693097, Final residual = 4.01436e-08, No Iterations 9
ExecutionTime = 0.69 s  ClockTime = 1 s

Courant Number mean: 0.310459 max: 4.99015
deltaT = 0.643927
Time = 6.21294

PIMPLE: iteration 1
smoothSolver:  Solving for alpha.sludge, Initial residual = 0.0205993, Final residual = 4.96195e-07, No Iterations 3
Phase-1 volume fraction = 0.00100001  Min(alpha.sludge) = 0.000831364  Max(alpha.sludge) = 0.00121817
Applying the previous iteration correction flux
MULES: Correcting alpha.sludge
MULES: Correcting alpha.sludge
MULES: Correcting alpha.sludge
Phase-1 volume fraction = 0.00100021  Min(alpha.sludge) = 0.000803218  Max(alpha.sludge) = 0.00269429
DICPCG:  Solving for alpha.sludge, Initial residual = 0.115596, Final residual = 7.07967e-07, No Iterations 5
Phase-1 volume fraction = 0.00100021  Min(alpha.sludge) = 0.000810308  Max(alpha.sludge) = 0.00213806
GAMG:  Solving for p_rgh, Initial residual = 0.0242657, Final residual = 0.00020491, No Iterations 3
time step continuity errors : sum local = 9.3299e-07, global = 6.04041e-08, cumulative = 6.72716e-07
GAMG:  Solving for p_rgh, Initial residual = 0.00190979, Final residual = 1.46604e-05, No Iterations 4
time step continuity errors : sum local = 6.79814e-08, global = 4.17941e-09, cumulative = 6.76895e-07
GAMG:  Solving for p_rgh, Initial residual = 0.000869364, Final residual = 7.68769e-08, No Iterations 10
time step continuity errors : sum local = 3.55936e-10, global = 8.56256e-11, cumulative = 6.76981e-07
DILUPBiCGStab:  Solving for epsilon, Initial residual = 0.0305151, Final residual = 3.0883e-08, No Iterations 8
DILUPBiCGStab:  Solving for k, Initial residual = 0.0644108, Final residual = 3.91014e-08, No Iterations 9
ExecutionTime = 0.73 s  ClockTime = 1 s

Courant Number mean: 0.310468 max: 4.98849
deltaT = 0.643927
Time = 6.85686

PIMPLE: iteration 1
smoothSolver:  Solving for alpha.sludge, Initial residual = 0.0262078, Final residual = 6.17736e-07, No Iterations 3
Phase-1 volume fraction = 0.00100001  Min(alpha.sludge) = 0.000813022  Max(alpha.sludge) = 0.00132056
Applying the previous iteration correction flux
MULES: Correcting alpha.sludge
MULES: Correcting alpha.sludge
MULES: Correcting alpha.sludge
Phase-1 volume fraction = 0.00100018  Min(alpha.sludge) = 0.000785037  Max(alpha.sludge) = 0.00211334
DICPCG:  Solving for alpha.sludge, Initial residual = 0.106551, Final residual = 6.46162e-07, No Iterations 5
Phase-1 volume fraction = 0.00100018  Min(alpha.sludge) = 0.000792535  Max(alpha.sludge) = 0.00177032
GAMG:  Solving for p_rgh, Initial residual = 0.0249753, Final residual = 0.000197317, No Iterations 3
time step continuity errors : sum local = 9.37685e-07, global = 6.0898e-08, cumulative = 7.37879e-07
GAMG:  Solving for p_rgh, Initial residual = 0.00196542, Final residual = 5.88474e-06, No Iterations 5
time step continuity errors : sum local = 2.84936e-08, global = 4.22553e-09, cumulative = 7.42104e-07
GAMG:  Solving for p_rgh, Initial residual = 0.000876263, Final residual = 7.49026e-08, No Iterations 15
time step continuity errors : sum local = 3.63226e-10, global = 1.83328e-10, cumulative = 7.42288e-07
DILUPBiCGStab:  Solving for epsilon, Initial residual = 0.0268348, Final residual = 3.14434e-08, No Iterations 7
DILUPBiCGStab:  Solving for k, Initial residual = 0.0631085, Final residual = 9.89034e-08, No Iterations 8
ExecutionTime = 0.78 s  ClockTime = 1 s

Courant Number mean: 0.310474 max: 4.97592
deltaT = 0.643927
Time = 7.50079

PIMPLE: iteration 1
smoothSolver:  Solving for alpha.sludge, Initial residual = 0.0191361, Final residual = 8.05951e-07, No Iterations 3
Phase-1 volume fraction = 0.000999996  Min(alpha.sludge) = 0.000795488  Max(alpha.sludge) = 0.00129261
Applying the previous iteration correction flux
MULES: Correcting alpha.sludge
MULES: Correcting alpha.sludge
MULES: Correcting alpha.sludge
Phase-1 volume fraction = 0.00100013  Min(alpha.sludge) = 0.000767675  Max(alpha.sludge) = 0.00202321
DICPCG:  Solving for alpha.sludge, Initial residual = 0.0967119, Final residual = 5.34857e-07, No Iterations 5
Phase-1 volume fraction = 0.00100013  Min(alpha.sludge) = 0.000775533  Max(alpha.sludge) = 0.00162872
GAMG:  Solving for p_rgh, Initial residual = 0.0254593, Final residual = 0.000177757, No Iterations 3
time step continuity errors : sum local = 8.76627e-07, global = -1.65114e-07, cumulative = 5.77174e-07
GAMG:  Solving for p_rgh, Initial residual = 0.00159912, Final residual = 1.21349e-05, No Iterations 4
time step continuity errors : sum local = 6.09068e-08, global = 1.015e-09, cumulative = 5.78189e-07
GAMG:  Solving for p_rgh, Initial residual = 0.000787302, Final residual = 7.62426e-08, No Iterations 14
time step continuity errors : sum local = 3.82299e-10, global = -7.70626e-11, cumulative = 5.78112e-07
DILUPBiCGStab:  Solving for epsilon, Initial residual = 0.0300958, Final residual = 4.38406e-08, No Iterations 8
DILUPBiCGStab:  Solving for k, Initial residual = 0.058624, Final residual = 7.75247e-08, No Iterations 8
ExecutionTime = 0.82 s  ClockTime = 1 s

Courant Number mean: 0.310484 max: 4.97295
deltaT = 0.643927
Time = 8.14472

PIMPLE: iteration 1
smoothSolver:  Solving for alpha.sludge, Initial residual = 0.0137444, Final residual = 9.27942e-07, No Iterations 3
Phase-1 volume fraction = 0.000999962  Min(alpha.sludge) = 0.000778672  Max(alpha.sludge) = 0.00128254
Applying the previous iteration correction flux
MULES: Correcting alpha.sludge
MULES: Correcting alpha.sludge
MULES: Correcting alpha.sludge
Phase-1 volume fraction = 0.000999929  Min(alpha.sludge) = 0.00045528  Max(alpha.sludge) = 0.00200622
DICPCG:  Solving for alpha.sludge, Initial residual = 0.0917554, Final residual = 4.73621e-07, No Iterations 5
Phase-1 volume fraction = 0.000999932  Min(alpha.sludge) = 0.000679523  Max(alpha.sludge) = 0.0015738
GAMG:  Solving for p_rgh, Initial residual = 0.0221125, Final residual = 0.000167734, No Iterations 3
time step continuity errors : sum local = 8.63045e-07, global = 3.1635e-08, cumulative = 6.09747e-07
GAMG:  Solving for p_rgh, Initial residual = 0.00138338, Final residual = 4.418e-06, No Iterations 5
time step continuity errors : sum local = 2.31746e-08, global = 7.94189e-09, cumulative = 6.17689e-07
GAMG:  Solving for p_rgh, Initial residual = 0.000713714, Final residual = 8.4821e-08, No Iterations 14
time step continuity errors : sum local = 4.45427e-10, global = -2.86554e-10, cumulative = 6.17402e-07
DILUPBiCGStab:  Solving for epsilon, Initial residual = 0.0249654, Final residual = 2.93182e-08, No Iterations 7
DILUPBiCGStab:  Solving for k, Initial residual = 0.0592235, Final residual = 9.29916e-08, No Iterations 7
ExecutionTime = 0.86 s  ClockTime = 1 s

Courant Number mean: 0.31049 max: 4.96066
deltaT = 0.653989
Time = 8.79871

PIMPLE: iteration 1
smoothSolver:  Solving for alpha.sludge, Initial residual = 0.0256475, Final residual = 4.33886e-08, No Iterations 4
Phase-1 volume fraction = 0.000999879  Min(alpha.sludge) = 0.000762546  Max(alpha.sludge) = 0.001303
Applying the previous iteration correction flux
MULES: Correcting alpha.sludge
MULES: Correcting alpha.sludge
MULES: Correcting alpha.sludge
Phase-1 volume fraction = 0.000999991  Min(alpha.sludge) = 0.000471958  Max(alpha.sludge) = 0.00281124
DICPCG:  Solving for alpha.sludge, Initial residual = 0.0867629, Final residual = 5.00714e-07, No Iterations 5
Phase-1 volume fraction = 0.000999994  Min(alpha.sludge) = 0.000743277  Max(alpha.sludge) = 0.00218514
GAMG:  Solving for p_rgh, Initial residual = 0.0224533, Final residual = 0.000180406, No Iterations 3
time step continuity errors : sum local = 9.79919e-07, global = -1.2838e-07, cumulative = 4.89022e-07
GAMG:  Solving for p_rgh, Initial residual = 0.0014101, Final residual = 1.14464e-05, No Iterations 4
time step continuity errors : sum local = 6.29049e-08, global = 3.47307e-09, cumulative = 4.92495e-07
GAMG:  Solving for p_rgh, Initial residual = 0.000623775, Final residual = 9.47532e-08, No Iterations 14
time step continuity errors : sum local = 5.19987e-10, global = 1.1249e-10, cumulative = 4.92607e-07
DILUPBiCGStab:  Solving for epsilon, Initial residual = 0.0262807, Final residual = 4.05326e-08, No Iterations 8
DILUPBiCGStab:  Solving for k, Initial residual = 0.0558945, Final residual = 4.09109e-08, No Iterations 9
ExecutionTime = 0.91 s  ClockTime = 1 s

Courant Number mean: 0.315354 max: 5.03949
deltaT = 0.653989
Time = 9.4527

PIMPLE: iteration 1
smoothSolver:  Solving for alpha.sludge, Initial residual = 0.0294741, Final residual = 8.82706e-07, No Iterations 3
Phase-1 volume fraction = 0.000999818  Min(alpha.sludge) = 0.00074671  Max(alpha.sludge) = 0.00132337
Applying the previous iteration correction flux
MULES: Correcting alpha.sludge
MULES: Correcting alpha.sludge
MULES: Correcting alpha.sludge
Phase-1 volume fraction = 0.00100002  Min(alpha.sludge) = 0.000520401  Max(alpha.sludge) = 0.00271897
DICPCG:  Solving for alpha.sludge, Initial residual = 0.0790123, Final residual = 6.71963e-07, No Iterations 5
Phase-1 volume fraction = 0.00100002  Min(alpha.sludge) = 0.000727891  Max(alpha.sludge) = 0.00214389
GAMG:  Solving for p_rgh, Initial residual = 0.0336224, Final residual = 0.000111243, No Iterations 4
time step continuity errors : sum local = 6.24718e-07, global = 3.75193e-08, cumulative = 5.30127e-07
GAMG:  Solving for p_rgh, Initial residual = 0.0014023, Final residual = 9.61262e-06, No Iterations 4
time step continuity errors : sum local = 5.47966e-08, global = -8.12201e-09, cumulative = 5.22005e-07
GAMG:  Solving for p_rgh, Initial residual = 0.00067668, Final residual = 4.76332e-08, No Iterations 11
time step continuity errors : sum local = 2.71891e-10, global = -1.60381e-11, cumulative = 5.21989e-07
DILUPBiCGStab:  Solving for epsilon, Initial residual = 0.0190198, Final residual = 9.23071e-08, No Iterations 7
DILUPBiCGStab:  Solving for k, Initial residual = 0.0535091, Final residual = 8.04535e-08, No Iterations 8
ExecutionTime = 0.95 s  ClockTime = 1 s

Courant Number mean: 0.315365 max: 5.03138
deltaT = 0.653989
Time = 10.1067

PIMPLE: iteration 1
smoothSolver:  Solving for alpha.sludge, Initial residual = 0.0287801, Final residual = 9.43276e-07, No Iterations 3
Phase-1 volume fraction = 0.00099982  Min(alpha.sludge) = 0.00073139  Max(alpha.sludge) = 0.00134334
Applying the previous iteration correction flux
MULES: Correcting alpha.sludge
MULES: Correcting alpha.sludge
MULES: Correcting alpha.sludge
Phase-1 volume fraction = 0.00099998  Min(alpha.sludge) = 0.000703939  Max(alpha.sludge) = 0.00196879
DICPCG:  Solving for alpha.sludge, Initial residual = 0.0743578, Final residual = 5.77031e-07, No Iterations 5
Phase-1 volume fraction = 0.000999983  Min(alpha.sludge) = 0.000713002  Max(alpha.sludge) = 0.00164514
GAMG:  Solving for p_rgh, Initial residual = 0.0333936, Final residual = 0.000124724, No Iterations 4
time step continuity errors : sum local = 7.23655e-07, global = -9.18301e-08, cumulative = 4.30159e-07
GAMG:  Solving for p_rgh, Initial residual = 0.00155188, Final residual = 1.43665e-05, No Iterations 4
time step continuity errors : sum local = 8.44548e-08, global = 5.35988e-09, cumulative = 4.35518e-07
GAMG:  Solving for p_rgh, Initial residual = 0.000685204, Final residual = 5.29332e-08, No Iterations 10
time step continuity errors : sum local = 3.10792e-10, global = 3.85528e-11, cumulative = 4.35557e-07
DILUPBiCGStab:  Solving for epsilon, Initial residual = 0.0200138, Final residual = 9.01718e-08, No Iterations 7
DILUPBiCGStab:  Solving for k, Initial residual = 0.0481166, Final residual = 8.31539e-08, No Iterations 8
ExecutionTime = 1 s  ClockTime = 1 s

Courant Number mean: 0.315376 max: 5.02489
deltaT = 0.653989
Time = 10.7607

PIMPLE: iteration 1
smoothSolver:  Solving for alpha.sludge, Initial residual = 0.0160489, Final residual = 5.13807e-08, No Iterations 4
Phase-1 volume fraction = 0.00099979  Min(alpha.sludge) = 0.000716534  Max(alpha.sludge) = 0.00136296
Applying the previous iteration correction flux
MULES: Correcting alpha.sludge
MULES: Correcting alpha.sludge
MULES: Correcting alpha.sludge
Phase-1 volume fraction = 0.000999788  Min(alpha.sludge) = 0.000689296  Max(alpha.sludge) = 0.00194745
DICPCG:  Solving for alpha.sludge, Initial residual = 0.0652114, Final residual = 3.71994e-07, No Iterations 5
Phase-1 volume fraction = 0.000999791  Min(alpha.sludge) = 0.000698553  Max(alpha.sludge) = 0.00157466
GAMG:  Solving for p_rgh, Initial residual = 0.0245764, Final residual = 0.000179483, No Iterations 3
time step continuity errors : sum local = 1.07722e-06, global = 1.8127e-08, cumulative = 4.53684e-07
GAMG:  Solving for p_rgh, Initial residual = 0.00172192, Final residual = 7.13455e-06, No Iterations 4
time step continuity errors : sum local = 4.3361e-08, global = -1.46438e-08, cumulative = 4.3904e-07
GAMG:  Solving for p_rgh, Initial residual = 0.000667534, Final residual = 6.40636e-08, No Iterations 8
time step continuity errors : sum local = 3.90019e-10, global = 1.37048e-10, cumulative = 4.39177e-07
DILUPBiCGStab:  Solving for epsilon, Initial residual = 0.0179662, Final residual = 3.93747e-08, No Iterations 7
DILUPBiCGStab:  Solving for k, Initial residual = 0.0447758, Final residual = 5.39854e-08, No Iterations 8
ExecutionTime = 1.04 s  ClockTime = 1 s

Courant Number mean: 0.315389 max: 5.02153
deltaT = 0.653989
Time = 11.4147

PIMPLE: iteration 1
smoothSolver:  Solving for alpha.sludge, Initial residual = 0.015088, Final residual = 5.40716e-08, No Iterations 4
Phase-1 volume fraction = 0.000999716  Min(alpha.sludge) = 0.00070209  Max(alpha.sludge) = 0.00138229
Applying the previous iteration correction flux
MULES: Correcting alpha.sludge
MULES: Correcting alpha.sludge
MULES: Correcting alpha.sludge
Phase-1 volume fraction = 0.00099974  Min(alpha.sludge) = 0.000199895  Max(alpha.sludge) = 0.00237621
DICPCG:  Solving for alpha.sludge, Initial residual = 0.0640538, Final residual = 2.96716e-07, No Iterations 5
Phase-1 volume fraction = 0.000999743  Min(alpha.sludge) = 0.000605723  Max(alpha.sludge) = 0.00188784
GAMG:  Solving for p_rgh, Initial residual = 0.0249856, Final residual = 0.000216632, No Iterations 3
time step continuity errors : sum local = 1.33876e-06, global = 1.72545e-08, cumulative = 4.56432e-07
GAMG:  Solving for p_rgh, Initial residual = 0.00171766, Final residual = 9.17705e-06, No Iterations 4
time step continuity errors : sum local = 5.74325e-08, global = 5.52299e-09, cumulative = 4.61955e-07
GAMG:  Solving for p_rgh, Initial residual = 0.000645096, Final residual = 5.70337e-08, No Iterations 13
time step continuity errors : sum local = 3.56554e-10, global = -2.42691e-10, cumulative = 4.61712e-07
DILUPBiCGStab:  Solving for epsilon, Initial residual = 0.0227064, Final residual = 8.63001e-08, No Iterations 7
DILUPBiCGStab:  Solving for k, Initial residual = 0.0416062, Final residual = 5.07081e-08, No Iterations 8
ExecutionTime = 1.08 s  ClockTime = 1 s

Courant Number mean: 0.315403 max: 5.0216
deltaT = 0.653989
Time = 12.0687

PIMPLE: iteration 1
smoothSolver:  Solving for alpha.sludge, Initial residual = 0.0221313, Final residual = 9.26946e-07, No Iterations 3
Phase-1 volume fraction = 0.00099963  Min(alpha.sludge) = 0.000688012  Max(alpha.sludge) = 0.00140133
Applying the previous iteration correction flux
MULES: Correcting alpha.sludge
MULES: Correcting alpha.sludge
MULES: Correcting alpha.sludge
Phase-1 volume fraction = 0.000999828  Min(alpha.sludge) = 0.000661215  Max(alpha.sludge) = 0.00322427
DICPCG:  Solving for alpha.sludge, Initial residual = 0.0626485, Final residual = 5.10906e-07, No Iterations 5
Phase-1 volume fraction = 0.000999832  Min(alpha.sludge) = 0.000670787  Max(alpha.sludge) = 0.00242996
GAMG:  Solving for p_rgh, Initial residual = 0.0248303, Final residual = 0.000206208, No Iterations 3
time step continuity errors : sum local = 1.31568e-06, global = 3.22465e-08, cumulative = 4.93958e-07
GAMG:  Solving for p_rgh, Initial residual = 0.00185906, Final residual = 9.65778e-06, No Iterations 4
time step continuity errors : sum local = 6.23933e-08, global = -6.71892e-09, cumulative = 4.8724e-07
GAMG:  Solving for p_rgh, Initial residual = 0.000677693, Final residual = 4.30243e-08, No Iterations 12
time step continuity errors : sum local = 2.78148e-10, global = 9.74786e-11, cumulative = 4.87337e-07
DILUPBiCGStab:  Solving for epsilon, Initial residual = 0.0242386, Final residual = 3.58838e-08, No Iterations 7
DILUPBiCGStab:  Solving for k, Initial residual = 0.0400452, Final residual = 6.87477e-08, No Iterations 8
ExecutionTime = 1.12 s  ClockTime = 1 s

Courant Number mean: 0.315418 max: 5.02224
deltaT = 0.653989
Time = 12.7226

PIMPLE: iteration 1
smoothSolver:  Solving for alpha.sludge, Initial residual = 0.023634, Final residual = 8.83625e-07, No Iterations 3
Phase-1 volume fraction = 0.000999622  Min(alpha.sludge) = 0.000674258  Max(alpha.sludge) = 0.00142012
Applying the previous iteration correction flux
MULES: Correcting alpha.sludge
MULES: Correcting alpha.sludge
MULES: Correcting alpha.sludge
Phase-1 volume fraction = 0.000999823  Min(alpha.sludge) = 0.000631304  Max(alpha.sludge) = 0.00326773
DICPCG:  Solving for alpha.sludge, Initial residual = 0.0593408, Final residual = 5.18335e-07, No Iterations 5
Phase-1 volume fraction = 0.000999826  Min(alpha.sludge) = 0.000657385  Max(alpha.sludge) = 0.00246352
GAMG:  Solving for p_rgh, Initial residual = 0.0240303, Final residual = 8.88703e-05, No Iterations 4
time step continuity errors : sum local = 5.83251e-07, global = -1.93655e-07, cumulative = 2.93682e-07
GAMG:  Solving for p_rgh, Initial residual = 0.00160077, Final residual = 1.21619e-05, No Iterations 4
time step continuity errors : sum local = 8.08972e-08, global = -1.77905e-08, cumulative = 2.75891e-07
GAMG:  Solving for p_rgh, Initial residual = 0.000616939, Final residual = 5.06741e-08, No Iterations 13
time step continuity errors : sum local = 3.36691e-10, global = 2.83972e-10, cumulative = 2.76175e-07
DILUPBiCGStab:  Solving for epsilon, Initial residual = 0.0276219, Final residual = 8.64633e-08, No Iterations 7
DILUPBiCGStab:  Solving for k, Initial residual = 0.0397516, Final residual = 8.31357e-08, No Iterations 8
ExecutionTime = 1.17 s  ClockTime = 1 s

Courant Number mean: 0.315433 max: 5.01936
deltaT = 0.653989
Time = 13.3766

PIMPLE: iteration 1
smoothSolver:  Solving for alpha.sludge, Initial residual = 0.0215417, Final residual = 9.34202e-07, No Iterations 3
Phase-1 volume fraction = 0.000999589  Min(alpha.sludge) = 0.000660791  Max(alpha.sludge) = 0.00143871
Applying the previous iteration correction flux
MULES: Correcting alpha.sludge
MULES: Correcting alpha.sludge
MULES: Correcting alpha.sludge
Phase-1 volume fraction = 0.000999751  Min(alpha.sludge) = 0.000634452  Max(alpha.sludge) = 0.00242906
DICPCG:  Solving for alpha.sludge, Initial residual = 0.0532263, Final residual = 4.54898e-07, No Iterations 5
Phase-1 volume fraction = 0.000999755  Min(alpha.sludge) = 0.000644255  Max(alpha.sludge) = 0.00191002
GAMG:  Solving for p_rgh, Initial residual = 0.0201874, Final residual = 0.00016329, No Iterations 3
time step continuity errors : sum local = 1.10766e-06, global = -9.52413e-08, cumulative = 1.80934e-07
GAMG:  Solving for p_rgh, Initial residual = 0.00143375, Final residual = 7.25595e-06, No Iterations 4
time step continuity errors : sum local = 4.96922e-08, global = -1.71174e-08, cumulative = 1.63816e-07
GAMG:  Solving for p_rgh, Initial residual = 0.000728998, Final residual = 9.80365e-08, No Iterations 9
time step continuity errors : sum local = 6.72276e-10, global = -5.82228e-13, cumulative = 1.63816e-07
DILUPBiCGStab:  Solving for epsilon, Initial residual = 0.0244271, Final residual = 7.43597e-08, No Iterations 7
DILUPBiCGStab:  Solving for k, Initial residual = 0.0420942, Final residual = 6.85884e-08, No Iterations 8
ExecutionTime = 1.21 s  ClockTime = 1 s

Courant Number mean: 0.31545 max: 5.01439
deltaT = 0.653989
Time = 14.0306

PIMPLE: iteration 1
smoothSolver:  Solving for alpha.sludge, Initial residual = 0.0123545, Final residual = 9.78079e-07, No Iterations 3
Phase-1 volume fraction = 0.00099955  Min(alpha.sludge) = 0.000647579  Max(alpha.sludge) = 0.00145715
Applying the previous iteration correction flux
MULES: Correcting alpha.sludge
MULES: Correcting alpha.sludge
MULES: Correcting alpha.sludge
Phase-1 volume fraction = 0.000999666  Min(alpha.sludge) = 0.000497532  Max(alpha.sludge) = 0.00192084
DICPCG:  Solving for alpha.sludge, Initial residual = 0.050839, Final residual = 3.99601e-07, No Iterations 5
Phase-1 volume fraction = 0.000999669  Min(alpha.sludge) = 0.000631366  Max(alpha.sludge) = 0.00157343
GAMG:  Solving for p_rgh, Initial residual = 0.0213513, Final residual = 0.000164465, No Iterations 3
time step continuity errors : sum local = 1.14731e-06, global = 7.48098e-08, cumulative = 2.38626e-07
GAMG:  Solving for p_rgh, Initial residual = 0.00146921, Final residual = 5.84303e-06, No Iterations 4
time step continuity errors : sum local = 4.13491e-08, global = 3.36659e-09, cumulative = 2.41992e-07
GAMG:  Solving for p_rgh, Initial residual = 0.000737701, Final residual = 7.37063e-08, No Iterations 9
time step continuity errors : sum local = 5.21422e-10, global = 5.95066e-11, cumulative = 2.42052e-07
DILUPBiCGStab:  Solving for epsilon, Initial residual = 0.0231576, Final residual = 6.45956e-08, No Iterations 6
DILUPBiCGStab:  Solving for k, Initial residual = 0.0388183, Final residual = 7.56243e-08, No Iterations 8
ExecutionTime = 1.25 s  ClockTime = 1 s

Courant Number mean: 0.315469 max: 5.01869
deltaT = 0.653989
Time = 14.6846

PIMPLE: iteration 1
smoothSolver:  Solving for alpha.sludge, Initial residual = 0.0135765, Final residual = 5.86908e-08, No Iterations 4
Phase-1 volume fraction = 0.000999509  Min(alpha.sludge) = 0.00063459  Max(alpha.sludge) = 0.00147542
Applying the previous iteration correction flux
MULES: Correcting alpha.sludge
MULES: Correcting alpha.sludge
MULES: Correcting alpha.sludge
Phase-1 volume fraction = 0.000999452  Min(alpha.sludge) = 0.000370879  Max(alpha.sludge) = 0.0015078
DICPCG:  Solving for alpha.sludge, Initial residual = 0.0482035, Final residual = 2.36243e-07, No Iterations 5
Phase-1 volume fraction = 0.000999456  Min(alpha.sludge) = 0.000618687  Max(alpha.sludge) = 0.00149438
GAMG:  Solving for p_rgh, Initial residual = 0.0308642, Final residual = 0.00010483, No Iterations 4
time step continuity errors : sum local = 7.58312e-07, global = -1.1944e-07, cumulative = 1.22611e-07
GAMG:  Solving for p_rgh, Initial residual = 0.00129214, Final residual = 5.52623e-06, No Iterations 4
time step continuity errors : sum local = 4.04772e-08, global = -1.35935e-08, cumulative = 1.09018e-07
GAMG:  Solving for p_rgh, Initial residual = 0.000679738, Final residual = 7.49368e-08, No Iterations 8
time step continuity errors : sum local = 5.48972e-10, global = 1.99535e-10, cumulative = 1.09217e-07
DILUPBiCGStab:  Solving for epsilon, Initial residual = 0.0191198, Final residual = 4.44159e-08, No Iterations 7
DILUPBiCGStab:  Solving for k, Initial residual = 0.0386544, Final residual = 6.57505e-08, No Iterations 8
ExecutionTime = 1.28 s  ClockTime = 1 s

Courant Number mean: 0.315483 max: 5.0092
deltaT = 0.653989
Time = 15.3386

PIMPLE: iteration 1
smoothSolver:  Solving for alpha.sludge, Initial residual = 0.0135462, Final residual = 9.93129e-07, No Iterations 3
Phase-1 volume fraction = 0.000999403  Min(alpha.sludge) = 0.000621797  Max(alpha.sludge) = 0.00149358
Applying the previous iteration correction flux
MULES: Correcting alpha.sludge
MULES: Correcting alpha.sludge
MULES: Correcting alpha.sludge
Phase-1 volume fraction = 0.000999424  Min(alpha.sludge) = 0.000596174  Max(alpha.sludge) = 0.00184272
DICPCG:  Solving for alpha.sludge, Initial residual = 0.0429054, Final residual = 1.78706e-07, No Iterations 5
Phase-1 volume fraction = 0.000999428  Min(alpha.sludge) = 0.000606194  Max(alpha.sludge) = 0.00157007
GAMG:  Solving for p_rgh, Initial residual = 0.0229888, Final residual = 6.87275e-05, No Iterations 4
time step continuity errors : sum local = 5.10824e-07, global = -1.41831e-07, cumulative = -3.26134e-08
GAMG:  Solving for p_rgh, Initial residual = 0.00104058, Final residual = 8.58998e-06, No Iterations 3
time step continuity errors : sum local = 6.45675e-08, global = 3.49789e-08, cumulative = 2.36552e-09
GAMG:  Solving for p_rgh, Initial residual = 0.000545973, Final residual = 5.47072e-08, No Iterations 9
time step continuity errors : sum local = 4.10664e-10, global = -8.64369e-12, cumulative = 2.35688e-09
DILUPBiCGStab:  Solving for epsilon, Initial residual = 0.0176642, Final residual = 8.01124e-08, No Iterations 6
DILUPBiCGStab:  Solving for k, Initial residual = 0.035181, Final residual = 5.52106e-08, No Iterations 8
ExecutionTime = 1.33 s  ClockTime = 1 s

Courant Number mean: 0.315505 max: 5.01555
deltaT = 0.653989
Time = 15.9926

PIMPLE: iteration 1
smoothSolver:  Solving for alpha.sludge, Initial residual = 0.00994073, Final residual = 9.0013e-07, No Iterations 3
Phase-1 volume fraction = 0.000999324  Min(alpha.sludge) = 0.000609176  Max(alpha.sludge) = 0.00151162
Applying the previous iteration correction flux
MULES: Correcting alpha.sludge
MULES: Correcting alpha.sludge
MULES: Correcting alpha.sludge
Phase-1 volume fraction = 0.000999512  Min(alpha.sludge) = 0.000549499  Max(alpha.sludge) = 0.00213385
DICPCG:  Solving for alpha.sludge, Initial residual = 0.042853, Final residual = 2.87373e-07, No Iterations 5
Phase-1 volume fraction = 0.000999515  Min(alpha.sludge) = 0.000593861  Max(alpha.sludge) = 0.00176668
GAMG:  Solving for p_rgh, Initial residual = 0.0234751, Final residual = 0.000224784, No Iterations 3
time step continuity errors : sum local = 1.72138e-06, global = 1.90554e-07, cumulative = 1.92911e-07
GAMG:  Solving for p_rgh, Initial residual = 0.00111912, Final residual = 4.00675e-06, No Iterations 5
time step continuity errors : sum local = 3.10394e-08, global = -3.66503e-09, cumulative = 1.89245e-07
GAMG:  Solving for p_rgh, Initial residual = 0.000554337, Final residual = 3.56625e-08, No Iterations 11
time step continuity errors : sum local = 2.76314e-10, global = 6.77305e-12, cumulative = 1.89252e-07
DILUPBiCGStab:  Solving for epsilon, Initial residual = 0.0145001, Final residual = 6.23686e-08, No Iterations 6
DILUPBiCGStab:  Solving for k, Initial residual = 0.0348604, Final residual = 4.34622e-08, No Iterations 8
ExecutionTime = 1.38 s  ClockTime = 1 s

Courant Number mean: 0.315525 max: 5.01275
deltaT = 0.653989
Time = 16.6466

PIMPLE: iteration 1
smoothSolver:  Solving for alpha.sludge, Initial residual = 0.0144, Final residual = 8.91835e-07, No Iterations 3
Phase-1 volume fraction = 0.000999336  Min(alpha.sludge) = 0.000596702  Max(alpha.sludge) = 0.00152957
Applying the previous iteration correction flux
MULES: Correcting alpha.sludge
MULES: Correcting alpha.sludge
MULES: Correcting alpha.sludge
Phase-1 volume fraction = 0.000999482  Min(alpha.sludge) = 0.000571575  Max(alpha.sludge) = 0.0020599
DICPCG:  Solving for alpha.sludge, Initial residual = 0.0411778, Final residual = 2.60403e-07, No Iterations 5
Phase-1 volume fraction = 0.000999485  Min(alpha.sludge) = 0.000581667  Max(alpha.sludge) = 0.00165021
GAMG:  Solving for p_rgh, Initial residual = 0.0235289, Final residual = 7.6988e-05, No Iterations 4
time step continuity errors : sum local = 6.06435e-07, global = 6.85144e-08, cumulative = 2.57767e-07
GAMG:  Solving for p_rgh, Initial residual = 0.000966682, Final residual = 7.84105e-06, No Iterations 3
time step continuity errors : sum local = 6.25454e-08, global = 1.9705e-08, cumulative = 2.77472e-07
GAMG:  Solving for p_rgh, Initial residual = 0.000470317, Final residual = 6.10892e-08, No Iterations 10
time step continuity errors : sum local = 4.86488e-10, global = 4.04143e-10, cumulative = 2.77876e-07
DILUPBiCGStab:  Solving for epsilon, Initial residual = 0.0149107, Final residual = 6.21409e-08, No Iterations 6
DILUPBiCGStab:  Solving for k, Initial residual = 0.0319481, Final residual = 7.47005e-08, No Iterations 8
ExecutionTime = 1.42 s  ClockTime = 1 s

Courant Number mean: 0.315546 max: 5.01179
deltaT = 0.653989
Time = 17.3006

PIMPLE: iteration 1
smoothSolver:  Solving for alpha.sludge, Initial residual = 0.00934413, Final residual = 9.74194e-07, No Iterations 3
Phase-1 volume fraction = 0.000999296  Min(alpha.sludge) = 0.000584357  Max(alpha.sludge) = 0.00154745
Applying the previous iteration correction flux
MULES: Correcting alpha.sludge
MULES: Correcting alpha.sludge
MULES: Correcting alpha.sludge
Phase-1 volume fraction = 0.000999201  Min(alpha.sludge) = 0.000423561  Max(alpha.sludge) = 0.00158008
DICPCG:  Solving for alpha.sludge, Initial residual = 0.0367363, Final residual = 9.25131e-07, No Iterations 4
Phase-1 volume fraction = 0.000999204  Min(alpha.sludge) = 0.000569592  Max(alpha.sludge) = 0.00156617
GAMG:  Solving for p_rgh, Initial residual = 0.0243755, Final residual = 7.22663e-05, No Iterations 4
time step continuity errors : sum local = 5.87497e-07, global = 4.67983e-08, cumulative = 3.24674e-07
GAMG:  Solving for p_rgh, Initial residual = 0.00100102, Final residual = 6.69937e-06, No Iterations 4
time step continuity errors : sum local = 5.51605e-08, global = 4.45415e-08, cumulative = 3.69216e-07
GAMG:  Solving for p_rgh, Initial residual = 0.000451751, Final residual = 5.77209e-08, No Iterations 8
time step continuity errors : sum local = 4.75027e-10, global = 1.28113e-10, cumulative = 3.69344e-07
DILUPBiCGStab:  Solving for epsilon, Initial residual = 0.0174256, Final residual = 5.8171e-08, No Iterations 6
DILUPBiCGStab:  Solving for k, Initial residual = 0.0314703, Final residual = 7.31899e-08, No Iterations 7
ExecutionTime = 1.45 s  ClockTime = 1 s

Courant Number mean: 0.315567 max: 5.00956
deltaT = 0.653989
Time = 17.9545

PIMPLE: iteration 1
smoothSolver:  Solving for alpha.sludge, Initial residual = 0.0116105, Final residual = 9.09698e-07, No Iterations 3
Phase-1 volume fraction = 0.00099918  Min(alpha.sludge) = 0.000572121  Max(alpha.sludge) = 0.00156527
Applying the previous iteration correction flux
MULES: Correcting alpha.sludge
MULES: Correcting alpha.sludge
MULES: Correcting alpha.sludge
Phase-1 volume fraction = 0.000999262  Min(alpha.sludge) = 0.000528622  Max(alpha.sludge) = 0.00186351
DICPCG:  Solving for alpha.sludge, Initial residual = 0.0372183, Final residual = 2.2241e-07, No Iterations 5
Phase-1 volume fraction = 0.000999266  Min(alpha.sludge) = 0.000557619  Max(alpha.sludge) = 0.00158395
GAMG:  Solving for p_rgh, Initial residual = 0.0289578, Final residual = 9.1531e-05, No Iterations 4
time step continuity errors : sum local = 7.67032e-07, global = -1.37943e-07, cumulative = 2.31401e-07
GAMG:  Solving for p_rgh, Initial residual = 0.00108516, Final residual = 9.22495e-06, No Iterations 3
time step continuity errors : sum local = 7.81693e-08, global = 4.06205e-08, cumulative = 2.72021e-07
GAMG:  Solving for p_rgh, Initial residual = 0.000442773, Final residual = 6.51899e-08, No Iterations 10
time step continuity errors : sum local = 5.52048e-10, global = -7.55349e-11, cumulative = 2.71946e-07
DILUPBiCGStab:  Solving for epsilon, Initial residual = 0.0215165, Final residual = 5.12472e-08, No Iterations 6
DILUPBiCGStab:  Solving for k, Initial residual = 0.0297628, Final residual = 9.90013e-08, No Iterations 8
ExecutionTime = 1.49 s  ClockTime = 1 s

Courant Number mean: 0.315589 max: 5.01106
deltaT = 0.653989
Time = 18.6085

PIMPLE: iteration 1
smoothSolver:  Solving for alpha.sludge, Initial residual = 0.0115214, Final residual = 9.1779e-07, No Iterations 3
Phase-1 volume fraction = 0.000999135  Min(alpha.sludge) = 0.000559978  Max(alpha.sludge) = 0.00158303
Applying the previous iteration correction flux
MULES: Correcting alpha.sludge
MULES: Correcting alpha.sludge
MULES: Correcting alpha.sludge
Phase-1 volume fraction = 0.000999326  Min(alpha.sludge) = 0.000535621  Max(alpha.sludge) = 0.00209455
DICPCG:  Solving for alpha.sludge, Initial residual = 0.0356832, Final residual = 1.83691e-07, No Iterations 5
Phase-1 volume fraction = 0.00099933  Min(alpha.sludge) = 0.000545731  Max(alpha.sludge) = 0.00176471
GAMG:  Solving for p_rgh, Initial residual = 0.0188179, Final residual = 0.000146219, No Iterations 3
time step continuity errors : sum local = 1.26529e-06, global = 1.28652e-07, cumulative = 4.00598e-07
GAMG:  Solving for p_rgh, Initial residual = 0.00106041, Final residual = 4.75433e-06, No Iterations 4
time step continuity errors : sum local = 4.17157e-08, global = 1.28213e-08, cumulative = 4.13419e-07
GAMG:  Solving for p_rgh, Initial residual = 0.000440392, Final residual = 5.69398e-08, No Iterations 10
time step continuity errors : sum local = 4.99885e-10, global = 9.32678e-11, cumulative = 4.13512e-07
DILUPBiCGStab:  Solving for epsilon, Initial residual = 0.0226938, Final residual = 9.8715e-08, No Iterations 6
DILUPBiCGStab:  Solving for k, Initial residual = 0.0321728, Final residual = 9.36345e-08, No Iterations 7
ExecutionTime = 1.53 s  ClockTime = 2 s

Courant Number mean: 0.315614 max: 5.01356
deltaT = 0.653989
Time = 19.2625

PIMPLE: iteration 1
smoothSolver:  Solving for alpha.sludge, Initial residual = 0.010017, Final residual = 9.22263e-07, No Iterations 3
Phase-1 volume fraction = 0.000999123  Min(alpha.sludge) = 0.000547911  Max(alpha.sludge) = 0.00160074
Applying the previous iteration correction flux
MULES: Correcting alpha.sludge
MULES: Correcting alpha.sludge
MULES: Correcting alpha.sludge
Phase-1 volume fraction = 0.000999244  Min(alpha.sludge) = 0.000523817  Max(alpha.sludge) = 0.00202927
DICPCG:  Solving for alpha.sludge, Initial residual = 0.0369245, Final residual = 2.08356e-07, No Iterations 5
Phase-1 volume fraction = 0.000999247  Min(alpha.sludge) = 0.000533912  Max(alpha.sludge) = 0.00165021
GAMG:  Solving for p_rgh, Initial residual = 0.0175329, Final residual = 9.06311e-05, No Iterations 3
time step continuity errors : sum local = 8.10459e-07, global = -1.89469e-07, cumulative = 2.24043e-07
GAMG:  Solving for p_rgh, Initial residual = 0.000863349, Final residual = 5.83842e-06, No Iterations 4
time step continuity errors : sum local = 5.28731e-08, global = -2.21999e-08, cumulative = 2.01844e-07
GAMG:  Solving for p_rgh, Initial residual = 0.000392621, Final residual = 4.10891e-08, No Iterations 9
time step continuity errors : sum local = 3.71605e-10, global = 4.49262e-11, cumulative = 2.01889e-07
DILUPBiCGStab:  Solving for epsilon, Initial residual = 0.0217678, Final residual = 5.03905e-08, No Iterations 6
DILUPBiCGStab:  Solving for k, Initial residual = 0.0331026, Final residual = 5.88129e-08, No Iterations 8
ExecutionTime = 1.57 s  ClockTime = 2 s

Courant Number mean: 0.315643 max: 5.01731
deltaT = 0.653989
Time = 19.9165

PIMPLE: iteration 1
smoothSolver:  Solving for alpha.sludge, Initial residual = 0.00980569, Final residual = 9.50147e-07, No Iterations 3
Phase-1 volume fraction = 0.000999071  Min(alpha.sludge) = 0.000535908  Max(alpha.sludge) = 0.00161841
Applying the previous iteration correction flux
MULES: Correcting alpha.sludge
MULES: Correcting alpha.sludge
MULES: Correcting alpha.sludge
Phase-1 volume fraction = 0.000998939  Min(alpha.sludge) = 0.000212276  Max(alpha.sludge) = 0.00189341
DICPCG:  Solving for alpha.sludge, Initial residual = 0.0323416, Final residual = 6.01293e-07, No Iterations 4
Phase-1 volume fraction = 0.000998942  Min(alpha.sludge) = 0.000522152  Max(alpha.sludge) = 0.00163701
GAMG:  Solving for p_rgh, Initial residual = 0.0282068, Final residual = 9.65686e-05, No Iterations 4
time step continuity errors : sum local = 8.95494e-07, global = 1.51627e-07, cumulative = 3.53516e-07
GAMG:  Solving for p_rgh, Initial residual = 0.000741986, Final residual = 6.60087e-06, No Iterations 5
time step continuity errors : sum local = 6.21519e-08, global = -1.61086e-08, cumulative = 3.37407e-07
GAMG:  Solving for p_rgh, Initial residual = 0.000379952, Final residual = 7.90493e-08, No Iterations 8
time step continuity errors : sum local = 7.44172e-10, global = -9.17154e-11, cumulative = 3.37315e-07
DILUPBiCGStab:  Solving for epsilon, Initial residual = 0.0175515, Final residual = 2.85371e-08, No Iterations 6
DILUPBiCGStab:  Solving for k, Initial residual = 0.033297, Final residual = 7.09353e-08, No Iterations 8
ExecutionTime = 1.61 s  ClockTime = 2 s

Courant Number mean: 0.315669 max: 5.01229
deltaT = 0.653989
Time = 20.5705

PIMPLE: iteration 1
smoothSolver:  Solving for alpha.sludge, Initial residual = 0.012844, Final residual = 8.78442e-07, No Iterations 3
Phase-1 volume fraction = 0.000998938  Min(alpha.sludge) = 0.000523957  Max(alpha.sludge) = 0.00163603
Applying the previous iteration correction flux
MULES: Correcting alpha.sludge
MULES: Correcting alpha.sludge
MULES: Correcting alpha.sludge
Phase-1 volume fraction = 0.000999046  Min(alpha.sludge) = 0.000500399  Max(alpha.sludge) = 0.0020252
DICPCG:  Solving for alpha.sludge, Initial residual = 0.0321538, Final residual = 2.37244e-07, No Iterations 5
Phase-1 volume fraction = 0.000999049  Min(alpha.sludge) = 0.000510436  Max(alpha.sludge) = 0.00165459
GAMG:  Solving for p_rgh, Initial residual = 0.0277232, Final residual = 0.000270744, No Iterations 3
time step continuity errors : sum local = 2.58815e-06, global = 2.5948e-07, cumulative = 5.96795e-07
GAMG:  Solving for p_rgh, Initial residual = 0.000954995, Final residual = 9.09051e-06, No Iterations 4
time step continuity errors : sum local = 8.749e-08, global = 3.52321e-08, cumulative = 6.32027e-07
GAMG:  Solving for p_rgh, Initial residual = 0.000481407, Final residual = 5.75529e-08, No Iterations 10
time step continuity errors : sum local = 5.53328e-10, global = -2.81763e-11, cumulative = 6.31999e-07
DILUPBiCGStab:  Solving for epsilon, Initial residual = 0.016475, Final residual = 7.5622e-08, No Iterations 6
DILUPBiCGStab:  Solving for k, Initial residual = 0.0314834, Final residual = 6.16577e-08, No Iterations 8
ExecutionTime = 1.66 s  ClockTime = 2 s

Courant Number mean: 0.315693 max: 5.00831
deltaT = 0.653989
Time = 21.2245

PIMPLE: iteration 1
smoothSolver:  Solving for alpha.sludge, Initial residual = 0.0104275, Final residual = 9.32021e-07, No Iterations 3
Phase-1 volume fraction = 0.000998925  Min(alpha.sludge) = 0.000512047  Max(alpha.sludge) = 0.00165361
Applying the previous iteration correction flux
MULES: Correcting alpha.sludge
MULES: Correcting alpha.sludge
MULES: Correcting alpha.sludge
Phase-1 volume fraction = 0.000998874  Min(alpha.sludge) = 0.000488761  Max(alpha.sludge) = 0.00168652
DICPCG:  Solving for alpha.sludge, Initial residual = 0.0266162, Final residual = 5.24043e-07, No Iterations 4
Phase-1 volume fraction = 0.000998878  Min(alpha.sludge) = 0.000498755  Max(alpha.sludge) = 0.00167213
GAMG:  Solving for p_rgh, Initial residual = 0.018482, Final residual = 0.000128583, No Iterations 3
time step continuity errors : sum local = 1.26401e-06, global = 1.65703e-07, cumulative = 7.97702e-07
GAMG:  Solving for p_rgh, Initial residual = 0.000785212, Final residual = 4.34824e-06, No Iterations 4
time step continuity errors : sum local = 4.32995e-08, global = -1.50936e-09, cumulative = 7.96193e-07
GAMG:  Solving for p_rgh, Initial residual = 0.000370351, Final residual = 9.16792e-08, No Iterations 12
time step continuity errors : sum local = 9.13384e-10, global = -4.67531e-10, cumulative = 7.95725e-07
DILUPBiCGStab:  Solving for epsilon, Initial residual = 0.0136803, Final residual = 5.49805e-08, No Iterations 6
DILUPBiCGStab:  Solving for k, Initial residual = 0.0301814, Final residual = 5.72715e-08, No Iterations 8
ExecutionTime = 1.71 s  ClockTime = 2 s

Courant Number mean: 0.315725 max: 5.01155
deltaT = 0.653989
Time = 21.8785

PIMPLE: iteration 1
smoothSolver:  Solving for alpha.sludge, Initial residual = 0.00583462, Final residual = 8.52539e-07, No Iterations 3
Phase-1 volume fraction = 0.000998815  Min(alpha.sludge) = 0.000500167  Max(alpha.sludge) = 0.00167113
Applying the previous iteration correction flux
MULES: Correcting alpha.sludge
MULES: Correcting alpha.sludge
MULES: Correcting alpha.sludge
Phase-1 volume fraction = 0.00099903  Min(alpha.sludge) = 0.000477157  Max(alpha.sludge) = 0.00304811
DICPCG:  Solving for alpha.sludge, Initial residual = 0.0284885, Final residual = 1.95886e-07, No Iterations 5
Phase-1 volume fraction = 0.000999033  Min(alpha.sludge) = 0.000487098  Max(alpha.sludge) = 0.00233549
GAMG:  Solving for p_rgh, Initial residual = 0.0195525, Final residual = 0.000132113, No Iterations 3
time step continuity errors : sum local = 1.34129e-06, global = -3.43635e-08, cumulative = 7.61362e-07
GAMG:  Solving for p_rgh, Initial residual = 0.0007802, Final residual = 3.16188e-06, No Iterations 5
time step continuity errors : sum local = 3.24883e-08, global = 1.76031e-09, cumulative = 7.63122e-07
GAMG:  Solving for p_rgh, Initial residual = 0.000334705, Final residual = 7.69044e-08, No Iterations 13
time step continuity errors : sum local = 7.89412e-10, global = 6.22494e-10, cumulative = 7.63745e-07
DILUPBiCGStab:  Solving for epsilon, Initial residual = 0.012549, Final residual = 8.69838e-08, No Iterations 6
DILUPBiCGStab:  Solving for k, Initial residual = 0.0297808, Final residual = 8.09678e-08, No Iterations 7
ExecutionTime = 1.79 s  ClockTime = 2 s

Courant Number mean: 0.315757 max: 5.01511
deltaT = 0.653989
Time = 22.5325

PIMPLE: iteration 1
smoothSolver:  Solving for alpha.sludge, Initial residual = 0.0121854, Final residual = 8.42687e-07, No Iterations 3
Phase-1 volume fraction = 0.000998809  Min(alpha.sludge) = 0.000488312  Max(alpha.sludge) = 0.00168861
Applying the previous iteration correction flux
MULES: Correcting alpha.sludge
MULES: Correcting alpha.sludge
MULES: Correcting alpha.sludge
Phase-1 volume fraction = 0.000999012  Min(alpha.sludge) = 0.000465578  Max(alpha.sludge) = 0.00311412
DICPCG:  Solving for alpha.sludge, Initial residual = 0.0292374, Final residual = 2.35853e-07, No Iterations 5
Phase-1 volume fraction = 0.000999015  Min(alpha.sludge) = 0.000475459  Max(alpha.sludge) = 0.002366
GAMG:  Solving for p_rgh, Initial residual = 0.0181222, Final residual = 0.000171582, No Iterations 3
time step continuity errors : sum local = 1.80277e-06, global = 2.68382e-07, cumulative = 1.03213e-06
GAMG:  Solving for p_rgh, Initial residual = 0.000816312, Final residual = 4.845e-06, No Iterations 5
time step continuity errors : sum local = 5.15695e-08, global = -1.40119e-08, cumulative = 1.01811e-06
GAMG:  Solving for p_rgh, Initial residual = 0.000365437, Final residual = 5.17339e-08, No Iterations 8
time step continuity errors : sum local = 5.50951e-10, global = 1.84135e-11, cumulative = 1.01813e-06
DILUPBiCGStab:  Solving for epsilon, Initial residual = 0.012338, Final residual = 7.65659e-08, No Iterations 6
DILUPBiCGStab:  Solving for k, Initial residual = 0.0291911, Final residual = 5.60254e-08, No Iterations 8
ExecutionTime = 1.85 s  ClockTime = 2 s

Courant Number mean: 0.31579 max: 5.01354
deltaT = 0.653989
Time = 23.1865

PIMPLE: iteration 1
smoothSolver:  Solving for alpha.sludge, Initial residual = 0.0115379, Final residual = 8.48925e-07, No Iterations 3
Phase-1 volume fraction = 0.000998773  Min(alpha.sludge) = 0.000476475  Max(alpha.sludge) = 0.00170601
Applying the previous iteration correction flux
MULES: Correcting alpha.sludge
MULES: Correcting alpha.sludge
MULES: Correcting alpha.sludge
Phase-1 volume fraction = 0.000998927  Min(alpha.sludge) = 0.00045402  Max(alpha.sludge) = 0.00230098
DICPCG:  Solving for alpha.sludge, Initial residual = 0.0283022, Final residual = 1.85755e-07, No Iterations 5
Phase-1 volume fraction = 0.000998931  Min(alpha.sludge) = 0.000463834  Max(alpha.sludge) = 0.00186248
GAMG:  Solving for p_rgh, Initial residual = 0.0185655, Final residual = 0.000174062, No Iterations 3
time step continuity errors : sum local = 1.89161e-06, global = 3.11201e-07, cumulative = 1.32933e-06
GAMG:  Solving for p_rgh, Initial residual = 0.000942947, Final residual = 8.36802e-06, No Iterations 4
time step continuity errors : sum local = 9.20906e-08, global = -4.63887e-09, cumulative = 1.32469e-06
GAMG:  Solving for p_rgh, Initial residual = 0.000356793, Final residual = 9.51337e-08, No Iterations 15
time step continuity errors : sum local = 1.04611e-09, global = 3.46665e-10, cumulative = 1.32504e-06
DILUPBiCGStab:  Solving for epsilon, Initial residual = 0.0165199, Final residual = 5.21443e-08, No Iterations 6
DILUPBiCGStab:  Solving for k, Initial residual = 0.0274168, Final residual = 6.50389e-08, No Iterations 7
ExecutionTime = 1.93 s  ClockTime = 2 s

Courant Number mean: 0.315826 max: 5.01411
deltaT = 0.653989
Time = 23.8404

PIMPLE: iteration 1
smoothSolver:  Solving for alpha.sludge, Initial residual = 0.00994562, Final residual = 8.82327e-07, No Iterations 3
Phase-1 volume fraction = 0.00099872  Min(alpha.sludge) = 0.000464655  Max(alpha.sludge) = 0.00172334
Applying the previous iteration correction flux
MULES: Correcting alpha.sludge
MULES: Correcting alpha.sludge
MULES: Correcting alpha.sludge
Phase-1 volume fraction = 0.000998855  Min(alpha.sludge) = 0.000442479  Max(alpha.sludge) = 0.00212226
DICPCG:  Solving for alpha.sludge, Initial residual = 0.0258688, Final residual = 1.28237e-07, No Iterations 5
Phase-1 volume fraction = 0.000998858  Min(alpha.sludge) = 0.000452225  Max(alpha.sludge) = 0.0017416
GAMG:  Solving for p_rgh, Initial residual = 0.0169814, Final residual = 0.000142823, No Iterations 3
time step continuity errors : sum local = 1.60589e-06, global = -2.59303e-07, cumulative = 1.06574e-06
GAMG:  Solving for p_rgh, Initial residual = 0.000963059, Final residual = 2.81526e-06, No Iterations 4
time step continuity errors : sum local = 3.19939e-08, global = 1.04292e-08, cumulative = 1.07617e-06
GAMG:  Solving for p_rgh, Initial residual = 0.000353368, Final residual = 2.56096e-08, No Iterations 12
time step continuity errors : sum local = 2.91336e-10, global = 2.60499e-12, cumulative = 1.07617e-06
DILUPBiCGStab:  Solving for epsilon, Initial residual = 0.0180446, Final residual = 9.36595e-08, No Iterations 6
DILUPBiCGStab:  Solving for k, Initial residual = 0.0262615, Final residual = 4.83829e-08, No Iterations 8
ExecutionTime = 1.99 s  ClockTime = 2 s

Courant Number mean: 0.31586 max: 5.01178
deltaT = 0.653989
Time = 24.4944

PIMPLE: iteration 1
smoothSolver:  Solving for alpha.sludge, Initial residual = 0.00648147, Final residual = 8.90621e-07, No Iterations 3
Phase-1 volume fraction = 0.000998656  Min(alpha.sludge) = 0.000452856  Max(alpha.sludge) = 0.00174058
Applying the previous iteration correction flux
MULES: Correcting alpha.sludge
MULES: Correcting alpha.sludge
MULES: Correcting alpha.sludge
Phase-1 volume fraction = 0.000998609  Min(alpha.sludge) = 0.000430961  Max(alpha.sludge) = 0.00193109
DICPCG:  Solving for alpha.sludge, Initial residual = 0.0264053, Final residual = 8.81907e-07, No Iterations 4
Phase-1 volume fraction = 0.000998613  Min(alpha.sludge) = 0.000440635  Max(alpha.sludge) = 0.00175874
GAMG:  Solving for p_rgh, Initial residual = 0.0192128, Final residual = 0.000112293, No Iterations 3
time step continuity errors : sum local = 1.30457e-06, global = 2.3848e-07, cumulative = 1.31465e-06
GAMG:  Solving for p_rgh, Initial residual = 0.000890625, Final residual = 5.17985e-06, No Iterations 4
time step continuity errors : sum local = 6.10751e-08, global = -3.88789e-09, cumulative = 1.31076e-06
GAMG:  Solving for p_rgh, Initial residual = 0.000354746, Final residual = 9.65757e-08, No Iterations 13
time step continuity errors : sum local = 1.13745e-09, global = 9.17998e-10, cumulative = 1.31168e-06
DILUPBiCGStab:  Solving for epsilon, Initial residual = 0.0216705, Final residual = 4.58017e-08, No Iterations 6
DILUPBiCGStab:  Solving for k, Initial residual = 0.0257038, Final residual = 8.17057e-08, No Iterations 7
ExecutionTime = 2.03 s  ClockTime = 2 s

Courant Number mean: 0.315897 max: 5.01317
deltaT = 0.653989
Time = 25.1484

PIMPLE: iteration 1
smoothSolver:  Solving for alpha.sludge, Initial residual = 0.0109188, Final residual = 8.58428e-07, No Iterations 3
Phase-1 volume fraction = 0.000998554  Min(alpha.sludge) = 0.000441083  Max(alpha.sludge) = 0.00175784
Applying the previous iteration correction flux
MULES: Correcting alpha.sludge
MULES: Correcting alpha.sludge
MULES: Correcting alpha.sludge
Phase-1 volume fraction = 0.000998723  Min(alpha.sludge) = 0.000419468  Max(alpha.sludge) = 0.00275735
DICPCG:  Solving for alpha.sludge, Initial residual = 0.0264645, Final residual = 9.03529e-07, No Iterations 4
Phase-1 volume fraction = 0.000998726  Min(alpha.sludge) = 0.000429062  Max(alpha.sludge) = 0.00216932
GAMG:  Solving for p_rgh, Initial residual = 0.0241791, Final residual = 0.000161296, No Iterations 3
time step continuity errors : sum local = 1.93901e-06, global = -5.76149e-08, cumulative = 1.25407e-06
GAMG:  Solving for p_rgh, Initial residual = 0.00100028, Final residual = 6.92046e-06, No Iterations 5
time step continuity errors : sum local = 8.38675e-08, global = -2.30065e-08, cumulative = 1.23106e-06
GAMG:  Solving for p_rgh, Initial residual = 0.000385401, Final residual = 5.79947e-08, No Iterations 9
time step continuity errors : sum local = 7.03229e-10, global = -3.58522e-10, cumulative = 1.2307e-06
DILUPBiCGStab:  Solving for epsilon, Initial residual = 0.02227, Final residual = 6.04882e-08, No Iterations 6
DILUPBiCGStab:  Solving for k, Initial residual = 0.0279985, Final residual = 8.26861e-08, No Iterations 7
ExecutionTime = 2.07 s  ClockTime = 2 s

Courant Number mean: 0.315934 max: 5.01219
deltaT = 0.653989
Time = 25.8024

PIMPLE: iteration 1
smoothSolver:  Solving for alpha.sludge, Initial residual = 0.013671, Final residual = 8.35655e-07, No Iterations 3
Phase-1 volume fraction = 0.000998496  Min(alpha.sludge) = 0.000429338  Max(alpha.sludge) = 0.00177499
Applying the previous iteration correction flux
MULES: Correcting alpha.sludge
MULES: Correcting alpha.sludge
MULES: Correcting alpha.sludge
Phase-1 volume fraction = 0.000998708  Min(alpha.sludge) = 0.000408003  Max(alpha.sludge) = 0.00288374
DICPCG:  Solving for alpha.sludge, Initial residual = 0.0234367, Final residual = 1.42161e-07, No Iterations 5
Phase-1 volume fraction = 0.000998712  Min(alpha.sludge) = 0.000417508  Max(alpha.sludge) = 0.00227257
GAMG:  Solving for p_rgh, Initial residual = 0.0149808, Final residual = 8.92779e-05, No Iterations 3
time step continuity errors : sum local = 1.1057e-06, global = -4.27862e-07, cumulative = 8.02839e-07
GAMG:  Solving for p_rgh, Initial residual = 0.000799776, Final residual = 7.1629e-06, No Iterations 4
time step continuity errors : sum local = 9.00619e-08, global = -4.57809e-08, cumulative = 7.57058e-07
GAMG:  Solving for p_rgh, Initial residual = 0.000391922, Final residual = 5.07834e-08, No Iterations 11
time step continuity errors : sum local = 6.38066e-10, global = 1.43684e-10, cumulative = 7.57202e-07
DILUPBiCGStab:  Solving for epsilon, Initial residual = 0.0216619, Final residual = 4.4861e-08, No Iterations 6
DILUPBiCGStab:  Solving for k, Initial residual = 0.0289114, Final residual = 5.13135e-08, No Iterations 7
ExecutionTime = 2.11 s  ClockTime = 2 s

Courant Number mean: 0.315978 max: 5.0172
deltaT = 0.653989
Time = 26.4564

PIMPLE: iteration 1
smoothSolver:  Solving for alpha.sludge, Initial residual = 0.00992918, Final residual = 8.48276e-07, No Iterations 3
Phase-1 volume fraction = 0.00099846  Min(alpha.sludge) = 0.000417628  Max(alpha.sludge) = 0.00179202
Applying the previous iteration correction flux
MULES: Correcting alpha.sludge
MULES: Correcting alpha.sludge
MULES: Correcting alpha.sludge
Phase-1 volume fraction = 0.000998612  Min(alpha.sludge) = 0.000396569  Max(alpha.sludge) = 0.00234221
DICPCG:  Solving for alpha.sludge, Initial residual = 0.024559, Final residual = 1.60937e-07, No Iterations 5
Phase-1 volume fraction = 0.000998616  Min(alpha.sludge) = 0.000405976  Max(alpha.sludge) = 0.00186972
GAMG:  Solving for p_rgh, Initial residual = 0.0132868, Final residual = 5.89278e-05, No Iterations 3
time step continuity errors : sum local = 7.58043e-07, global = 1.23074e-07, cumulative = 8.80276e-07
GAMG:  Solving for p_rgh, Initial residual = 0.000658168, Final residual = 3.49841e-06, No Iterations 4
time step continuity errors : sum local = 4.5564e-08, global = -1.60255e-08, cumulative = 8.64251e-07
GAMG:  Solving for p_rgh, Initial residual = 0.000407788, Final residual = 6.55877e-08, No Iterations 14
time step continuity errors : sum local = 8.53808e-10, global = -2.38765e-11, cumulative = 8.64227e-07
DILUPBiCGStab:  Solving for epsilon, Initial residual = 0.0184056, Final residual = 5.36162e-08, No Iterations 6
DILUPBiCGStab:  Solving for k, Initial residual = 0.0289451, Final residual = 6.88129e-08, No Iterations 8
ExecutionTime = 2.16 s  ClockTime = 2 s

Courant Number mean: 0.316023 max: 5.01409
deltaT = 0.653989
Time = 27.1104

PIMPLE: iteration 1
smoothSolver:  Solving for alpha.sludge, Initial residual = 0.00806588, Final residual = 8.5452e-07, No Iterations 3
Phase-1 volume fraction = 0.000998407  Min(alpha.sludge) = 0.000406049  Max(alpha.sludge) = 0.0018089
Applying the previous iteration correction flux
MULES: Correcting alpha.sludge
MULES: Correcting alpha.sludge
MULES: Correcting alpha.sludge
Phase-1 volume fraction = 0.000998561  Min(alpha.sludge) = 0.000385236  Max(alpha.sludge) = 0.00218636
DICPCG:  Solving for alpha.sludge, Initial residual = 0.0218468, Final residual = 1.09997e-07, No Iterations 5
Phase-1 volume fraction = 0.000998565  Min(alpha.sludge) = 0.000394534  Max(alpha.sludge) = 0.00182647
GAMG:  Solving for p_rgh, Initial residual = 0.0143753, Final residual = 7.20275e-05, No Iterations 3
time step continuity errors : sum local = 9.59005e-07, global = 1.34414e-07, cumulative = 9.98641e-07
GAMG:  Solving for p_rgh, Initial residual = 0.000682034, Final residual = 5.70574e-06, No Iterations 4
time step continuity errors : sum local = 7.69884e-08, global = -3.03757e-08, cumulative = 9.68265e-07
GAMG:  Solving for p_rgh, Initial residual = 0.000374004, Final residual = 8.08498e-08, No Iterations 10
time step continuity errors : sum local = 1.0898e-09, global = -1.39346e-10, cumulative = 9.68126e-07
DILUPBiCGStab:  Solving for epsilon, Initial residual = 0.0163104, Final residual = 5.11342e-08, No Iterations 6
DILUPBiCGStab:  Solving for k, Initial residual = 0.0261505, Final residual = 8.07403e-08, No Iterations 7
ExecutionTime = 2.2 s  ClockTime = 2 s

Courant Number mean: 0.316071 max: 5.0161
deltaT = 0.653989
Time = 27.7644

PIMPLE: iteration 1
smoothSolver:  Solving for alpha.sludge, Initial residual = 0.00619848, Final residual = 8.86548e-07, No Iterations 3
Phase-1 volume fraction = 0.000998354  Min(alpha.sludge) = 0.000394868  Max(alpha.sludge) = 0.00182563
Applying the previous iteration correction flux
MULES: Correcting alpha.sludge
MULES: Correcting alpha.sludge
MULES: Correcting alpha.sludge
Phase-1 volume fraction = 0.000998263  Min(alpha.sludge) = 0.000374206  Max(alpha.sludge) = 0.00185878
DICPCG:  Solving for alpha.sludge, Initial residual = 0.0198375, Final residual = 4.70454e-07, No Iterations 4
[...]
DILUPBiCGStab:  Solving for k, Initial residual = 0.0178451, Final residual = 4.53069e-08, No Iterations 5
ExecutionTime = 26.53 s  ClockTime = 27 s

Courant Number mean: 0.424068 max: 4.85879
deltaT = 0.637338
Time = 358.573

PIMPLE: iteration 1
smoothSolver:  Solving for alpha.sludge, Initial residual = 0.00328317, Final residual = 5.98229e-07, No Iterations 3
Phase-1 volume fraction = 0.000980949  Min(alpha.sludge) = -2.63836e-14  Max(alpha.sludge) = 0.00584476
Applying the previous iteration correction flux
MULES: Correcting alpha.sludge
MULES: Correcting alpha.sludge
MULES: Correcting alpha.sludge
Phase-1 volume fraction = 0.000981147  Min(alpha.sludge) = -5.88606e-08  Max(alpha.sludge) = 0.00585325
DICPCG:  Solving for alpha.sludge, Initial residual = 0.000804898, Final residual = 8.21927e-07, No Iterations 2
Phase-1 volume fraction = 0.000981151  Min(alpha.sludge) = -5.07322e-11  Max(alpha.sludge) = 0.00584455
GAMG:  Solving for p_rgh, Initial residual = 0.99996, Final residual = 0.00700379, No Iterations 4
time step continuity errors : sum local = 20.2177, global = 2.90939, cumulative = 2.90939
GAMG:  Solving for p_rgh, Initial residual = 0.155355, Final residual = 0.0011782, No Iterations 3
time step continuity errors : sum local = 7.90847, global = 0.232177, cumulative = 3.14157
GAMG:  Solving for p_rgh, Initial residual = 0.0287899, Final residual = 7.40221e-08, No Iterations 14
time step continuity errors : sum local = 0.000519876, global = -9.862e-05, cumulative = 3.14147
DILUPBiCGStab:  Solving for epsilon, Initial residual = 1, Final residual = 7.14353e-09, No Iterations 3
bounding epsilon, min: -2.84041e+07 max: 5.32294e+08 average: 80343.7
DILUPBiCGStab:  Solving for k, Initial residual = 0.762945, Final residual = 9.5733e-08, No Iterations 1
ExecutionTime = 26.58 s  ClockTime = 27 s

Courant Number mean: 7865.07 max: 7.99388e+06
deltaT = 3.98642e-07
Time = 358.573

PIMPLE: iteration 1
smoothSolver:  Solving for alpha.sludge, Initial residual = 0.00117, Final residual = 1.273e-07, No Iterations 3
Phase-1 volume fraction = 0.000981158  Min(alpha.sludge) = -5.07243e-11  Max(alpha.sludge) = 0.00584455
Applying the previous iteration correction flux
MULES: Correcting alpha.sludge
MULES: Correcting alpha.sludge
MULES: Correcting alpha.sludge
Phase-1 volume fraction = 0.00098116  Min(alpha.sludge) = -5.07236e-11  Max(alpha.sludge) = 0.00584455
DICPCG:  Solving for alpha.sludge, Initial residual = 0.225315, Final residual = 2.91748e-07, No Iterations 16
Phase-1 volume fraction = 0.00098116  Min(alpha.sludge) = -5.07236e-11  Max(alpha.sludge) = 0.00584455
GAMG:  Solving for p_rgh, Initial residual = 1, Final residual = 0.00558334, No Iterations 3
time step continuity errors : sum local = 8.07374e-06, global = -9.03393e-07, cumulative = 3.14147
GAMG:  Solving for p_rgh, Initial residual = 0.269698, Final residual = 0.00114503, No Iterations 3
time step continuity errors : sum local = 4.19884e-06, global = -3.56086e-07, cumulative = 3.14147
GAMG:  Solving for p_rgh, Initial residual = 0.145494, Final residual = 2.89367e-08, No Iterations 16
time step continuity errors : sum local = 1.17056e-10, global = -2.33056e-11, cumulative = 3.14147
DILUPBiCGStab:  Solving for epsilon, Initial residual = 0.999992, Final residual = 6.77913e-12, No Iterations 1
DILUPBiCGStab:  Solving for k, Initial residual = 0.994898, Final residual = 1.53769e-08, No Iterations 13
bounding k, min: -0.000439672 max: 8.16945 average: 0.0227225
ExecutionTime = 26.62 s  ClockTime = 28 s

Courant Number mean: 0.00490058 max: 1.46547
deltaT = 4.7837e-07
Time = 358.573

PIMPLE: iteration 1
smoothSolver:  Solving for alpha.sludge, Initial residual = 0.000533263, Final residual = 5.59203e-07, No Iterations 2
Phase-1 volume fraction = 0.000981186  Min(alpha.sludge) = -5.04002e-11  Max(alpha.sludge) = 0.00584455
Applying the previous iteration correction flux
MULES: Correcting alpha.sludge
MULES: Correcting alpha.sludge
MULES: Correcting alpha.sludge
Phase-1 volume fraction = 0.000981186  Min(alpha.sludge) = -5.03994e-11  Max(alpha.sludge) = 0.00584455
DICPCG:  Solving for alpha.sludge, Initial residual = 5.54282e-09, Final residual = 4.74957e-21, No Iterations 1
Phase-1 volume fraction = 0.000981186  Min(alpha.sludge) = -5.03994e-11  Max(alpha.sludge) = 0.00584455
GAMG:  Solving for p_rgh, Initial residual = 0.988235, Final residual = 0.00859762, No Iterations 2
time step continuity errors : sum local = 0.00274099, global = 0.000642115, cumulative = 3.14211
GAMG:  Solving for p_rgh, Initial residual = 0.249149, Final residual = 0.00149806, No Iterations 5
time step continuity errors : sum local = 1.9686e-05, global = 2.78079e-06, cumulative = 3.14211
GAMG:  Solving for p_rgh, Initial residual = 0.1831, Final residual = 9.50553e-08, No Iterations 22
time step continuity errors : sum local = 4.76341e-10, global = 7.35695e-11, cumulative = 3.14211
DILUPBiCGStab:  Solving for epsilon, Initial residual = 0.915584, Final residual = 8.53514e-09, No Iterations 3
bounding epsilon, min: -334.941 max: 1.34152e+06 average: 762.993
DILUPBiCGStab:  Solving for k, Initial residual = 0.982248, Final residual = 5.17952e-08, No Iterations 3
bounding k, min: -3409.24 max: 22244 average: 4.36049
ExecutionTime = 26.66 s  ClockTime = 28 s

Courant Number mean: 0.00544466 max: 1.38256
deltaT = 5.74044e-07
Time = 358.573

PIMPLE: iteration 1
smoothSolver:  Solving for alpha.sludge, Initial residual = 0.000484236, Final residual = 7.45622e-07, No Iterations 2
Phase-1 volume fraction = 0.00098121  Min(alpha.sludge) = -4.99115e-11  Max(alpha.sludge) = 0.00584455
Applying the previous iteration correction flux
MULES: Correcting alpha.sludge
MULES: Correcting alpha.sludge
MULES: Correcting alpha.sludge
Phase-1 volume fraction = 0.000981213  Min(alpha.sludge) = -4.99106e-11  Max(alpha.sludge) = 0.00584455
DICPCG:  Solving for alpha.sludge, Initial residual = 3.61907e-05, Final residual = 5.88999e-07, No Iterations 1
Phase-1 volume fraction = 0.000981213  Min(alpha.sludge) = -4.99106e-11  Max(alpha.sludge) = 0.00584455
GAMG:  Solving for p_rgh, Initial residual = 0.347553, Final residual = 0.00122497, No Iterations 3
time step continuity errors : sum local = 3.81526e-06, global = -1.06561e-06, cumulative = 3.14211
GAMG:  Solving for p_rgh, Initial residual = 0.090334, Final residual = 0.000864232, No Iterations 2
time step continuity errors : sum local = 1.85025e-06, global = -2.89469e-07, cumulative = 3.14211
GAMG:  Solving for p_rgh, Initial residual = 0.0375642, Final residual = 4.20295e-08, No Iterations 13
time step continuity errors : sum local = 8.46482e-11, global = 8.53168e-12, cumulative = 3.14211
DILUPBiCGStab:  Solving for epsilon, Initial residual = 0.997, Final residual = 1.50512e-09, No Iterations 3
bounding epsilon, min: -3.53063e+07 max: 4.91921e+09 average: 1.51221e+06
DILUPBiCGStab:  Solving for k, Initial residual = 0.998758, Final residual = 4.53996e-09, No Iterations 3
bounding k, min: -4.75393e+06 max: 6.84134e+07 average: 21657.9
ExecutionTime = 26.7 s  ClockTime = 28 s

Courant Number mean: 0.00670291 max: 1.41663
deltaT = 6.88853e-07
Time = 358.573

PIMPLE: iteration 1
smoothSolver:  Solving for alpha.sludge, Initial residual = 0.000501555, Final residual = 2.50346e-08, No Iterations 3
Phase-1 volume fraction = 0.000981237  Min(alpha.sludge) = -4.89335e-11  Max(alpha.sludge) = 0.00584455
Applying the previous iteration correction flux
MULES: Correcting alpha.sludge
MULES: Correcting alpha.sludge
MULES: Correcting alpha.sludge
Phase-1 volume fraction = 0.000981244  Min(alpha.sludge) = -4.89324e-11  Max(alpha.sludge) = 0.00584455
DICPCG:  Solving for alpha.sludge, Initial residual = 0.501802, Final residual = 4.29054e-08, No Iterations 13
Phase-1 volume fraction = 0.000981244  Min(alpha.sludge) = -4.89323e-11  Max(alpha.sludge) = 0.00584455
GAMG:  Solving for p_rgh, Initial residual = 0.739369, Final residual = 0.00468606, No Iterations 4
time step continuity errors : sum local = 9.6603e-06, global = -2.87402e-07, cumulative = 3.14211
GAMG:  Solving for p_rgh, Initial residual = 0.20346, Final residual = 0.00120215, No Iterations 4
time step continuity errors : sum local = 5.12782e-06, global = -1.13667e-06, cumulative = 3.14211
GAMG:  Solving for p_rgh, Initial residual = 0.127964, Final residual = 6.8134e-08, No Iterations 23
time step continuity errors : sum local = 3.36042e-10, global = 4.79079e-11, cumulative = 3.14211
DILUPBiCGStab:  Solving for epsilon, Initial residual = 0.182313, Final residual = 1.44243e-08, No Iterations 2
bounding epsilon, min: -6.11845e+10 max: 1.83178e+12 average: 1.98322e+09
DILUPBiCGStab:  Solving for k, Initial residual = 0.852112, Final residual = 1.41263e-09, No Iterations 11
bounding k, min: -2.47303e+07 max: 4.38483e+09 average: 1.17948e+07
ExecutionTime = 26.75 s  ClockTime = 28 s

Courant Number mean: 0.0133133 max: 2.64725
deltaT = 8.1896e-07
Time = 358.573

PIMPLE: iteration 1
smoothSolver:  Solving for alpha.sludge, Initial residual = 0.000951875, Final residual = 3.81846e-08, No Iterations 3
Phase-1 volume fraction = 0.000981291  Min(alpha.sludge) = -3.88432e-11  Max(alpha.sludge) = 0.00584455
Applying the previous iteration correction flux
MULES: Correcting alpha.sludge
MULES: Correcting alpha.sludge
MULES: Correcting alpha.sludge
Phase-1 volume fraction = 0.000981292  Min(alpha.sludge) = -3.88419e-11  Max(alpha.sludge) = 0.00584455
DICPCG:  Solving for alpha.sludge, Initial residual = 0.999969, Final residual = 1.08445e-07, No Iterations 9
Phase-1 volume fraction = 0.000982732  Min(alpha.sludge) = -3.88419e-11  Max(alpha.sludge) = 0.00584455
GAMG:  Solving for p_rgh, Initial residual = 0.906151, Final residual = 0.00780534, No Iterations 4
time step continuity errors : sum local = 3.30042e-05, global = -4.01009e-08, cumulative = 3.14211
GAMG:  Solving for p_rgh, Initial residual = 0.221354, Final residual = 0.00185021, No Iterations 6
time step continuity errors : sum local = 3.42227e-05, global = -2.26546e-07, cumulative = 3.14211
GAMG:  Solving for p_rgh, Initial residual = 0.236027, Final residual = 9.32452e-08, No Iterations 68
time step continuity errors : sum local = 1.18083e-09, global = 1.40058e-11, cumulative = 3.14211
DILUPBiCGStab:  Solving for epsilon, Initial residual = 0.173944, Final residual = 2.38566e-08, No Iterations 2
bounding epsilon, min: -2.68634e+14 max: 9.28557e+15 average: 4.89485e+13
DILUPBiCGStab:  Solving for k, Initial residual = 0.963239, Final residual = 2.13963e-08, No Iterations 12
bounding k, min: -2.75954e+08 max: 9.99169e+12 average: 4.52048e+10
ExecutionTime = 26.88 s  ClockTime = 28 s

Courant Number mean: 0.0369985 max: 4.86452
deltaT = 8.41768e-07
Time = 358.573

PIMPLE: iteration 1
smoothSolver:  Solving for alpha.sludge, Initial residual = 0.00248032, Final residual = 2.18717e-07, No Iterations 3
Phase-1 volume fraction = 0.000982631  Min(alpha.sludge) = -1.95786e-11  Max(alpha.sludge) = 0.00584455
Applying the previous iteration correction flux
MULES: Correcting alpha.sludge
MULES: Correcting alpha.sludge
MULES: Correcting alpha.sludge
Phase-1 volume fraction = 0.000982599  Min(alpha.sludge) = -1.95779e-11  Max(alpha.sludge) = 0.00584455
DICPCG:  Solving for alpha.sludge, Initial residual = 1, Final residual = 4.8794e-09, No Iterations 4
Phase-1 volume fraction = 0.000983677  Min(alpha.sludge) = -1.95779e-11  Max(alpha.sludge) = 0.00584455
GAMG:  Solving for p_rgh, Initial residual = 0.924555, Final residual = 0.0075086, No Iterations 4
time step continuity errors : sum local = 0.000145233, global = 2.05545e-05, cumulative = 3.14213
GAMG:  Solving for p_rgh, Initial residual = 6.81636e-09, Final residual = 6.81636e-09, No Iterations 0
time step continuity errors : sum local = 0.0131396, global = -6.75085e-05, cumulative = 3.14206
GAMG:  Solving for p_rgh, Initial residual = 9.47425e-09, Final residual = 9.47425e-09, No Iterations 0
time step continuity errors : sum local = 0.018263, global = -3.09059e-05, cumulative = 3.14203
DILUPBiCGStab:  Solving for epsilon, Initial residual = 0.222768, Final residual = 5.11954e-09, No Iterations 1
bounding epsilon, min: -5.16676e+13 max: 1.01238e+21 average: 4.00497e+18
DILUPBiCGStab:  Solving for k, Initial residual = 0.99999, Final residual = 1.59391e-08, No Iterations 3
bounding k, min: -3.35281e+07 max: 5.61638e+12 average: 3.68346e+10
ExecutionTime = 26.94 s  ClockTime = 28 s

Courant Number mean: 0.0706484 max: 8.99912
deltaT = 4.67694e-07
Time = 358.573

PIMPLE: iteration 1
smoothSolver:  Solving for alpha.sludge, Initial residual = 0.0131048, Final residual = 1.47438e-08, No Iterations 4
Phase-1 volume fraction = 0.000983673  Min(alpha.sludge) = -1.89003e-11  Max(alpha.sludge) = 0.00924188
Applying the previous iteration correction flux
MULES: Correcting alpha.sludge
MULES: Correcting alpha.sludge
MULES: Correcting alpha.sludge
Phase-1 volume fraction = 0.000983674  Min(alpha.sludge) = -1.88995e-11  Max(alpha.sludge) = 0.00919441
DICPCG:  Solving for alpha.sludge, Initial residual = 1, Final residual = 6.13724e-07, No Iterations 7
Phase-1 volume fraction = 0.000991252  Min(alpha.sludge) = -1.88995e-11  Max(alpha.sludge) = 0.00584455
GAMG:  Solving for p_rgh, Initial residual = 0.999921, Final residual = 0.00512292, No Iterations 3
time step continuity errors : sum local = 5.27778e+12, global = -1.72925e+11, cumulative = -1.72925e+11
GAMG:  Solving for p_rgh, Initial residual = 0.152981, Final residual = 0.000542498, No Iterations 7
time step continuity errors : sum local = 2.97501e+10, global = 8.59257e+09, cumulative = -1.64332e+11
GAMG:  Solving for p_rgh, Initial residual = 0.112936, Final residual = 8.64111e-08, No Iterations 16
time step continuity errors : sum local = 2.64013e+06, global = 351834, cumulative = -1.64332e+11
DILUPBiCGStab:  Solving for epsilon, Initial residual = 1, Final residual = 6.71858e-08, No Iterations 2
bounding epsilon, min: -1.04598e+39 max: 4.61996e+45 average: 5.60196e+42
DILUPBiCGStab:  Solving for k, Initial residual = 4.22804e-10, Final residual = 1.52359e-13, No Iterations 1
bounding k, min: -3.85086e+19 max: 8.81565e+23 average: 5.88268e+20
ExecutionTime = 27.01 s  ClockTime = 28 s

Courant Number mean: 2.69114e+12 max: 5.68745e+14
deltaT = 4.11163e-21
Time = 358.573

PIMPLE: iteration 1
smoothSolver:  Solving for alpha.sludge, Initial residual = 0.0038404, Final residual = 3.05136e-07, No Iterations 4
Phase-1 volume fraction = 0.000991126  Min(alpha.sludge) = -1.37836e-11  Max(alpha.sludge) = 0.00584455
Applying the previous iteration correction flux
MULES: Correcting alpha.sludge
MULES: Correcting alpha.sludge
MULES: Correcting alpha.sludge
Phase-1 volume fraction = 0.000991134  Min(alpha.sludge) = -1.37836e-11  Max(alpha.sludge) = 0.00584455
DICPCG:  Solving for alpha.sludge, Initial residual = 1, Final residual = 4.35407e-08, No Iterations 4
Phase-1 volume fraction = 0.000989402  Min(alpha.sludge) = -1.37836e-11  Max(alpha.sludge) = 0.00584452
GAMG:  Solving for p_rgh, Initial residual = 1, Final residual = 0.00432953, No Iterations 4
time step continuity errors : sum local = 4.24887e-05, global = 5.56855e-07, cumulative = -1.64332e+11
GAMG:  Solving for p_rgh, Initial residual = 3.13804e-10, Final residual = 3.13804e-10, No Iterations 0
time step continuity errors : sum local = 6.33586e+12, global = 3.82904e-05, cumulative = -1.64332e+11
GAMG:  Solving for p_rgh, Initial residual = 3.17443e-10, Final residual = 3.17443e-10, No Iterations 0
time step continuity errors : sum local = 6.40934e+12, global = 0.0003836, cumulative = -1.64332e+11
DILUPBiCGStab:  Solving for epsilon, Initial residual = 0.00017925, Final residual = 1.37382e-11, No Iterations 1
bounding epsilon, min: -4.28323e+28 max: 6.54471e+41 average: 1.41682e+38
DILUPBiCGStab:  Solving for k, Initial residual = 1, Final residual = 8.07929e-09, No Iterations 10
bounding k, min: -2.15257e+41 max: 3.00568e+43 average: 4.50853e+40
ExecutionTime = 27.05 s  ClockTime = 28 s

Courant Number mean: 5.01433e+12 max: 1.26232e+16
deltaT = 1.6286e-36
Time = 358.573

PIMPLE: iteration 1
smoothSolver:  Solving for alpha.sludge, Initial residual = 3.2004e-05, Final residual = 1.73896e-12, No Iterations 1
Phase-1 volume fraction = 0.000989402  Min(alpha.sludge) = -1.37836e-11  Max(alpha.sludge) = 0.00584452
Applying the previous iteration correction flux
MULES: Correcting alpha.sludge
MULES: Correcting alpha.sludge
MULES: Correcting alpha.sludge
Phase-1 volume fraction = 0.000989402  Min(alpha.sludge) = -1.37836e-11  Max(alpha.sludge) = 0.00584452
DICPCG:  Solving for alpha.sludge, Initial residual = 1, Final residual = 8.06954e-07, No Iterations 5
Phase-1 volume fraction = 0.00098703  Min(alpha.sludge) = -1.37836e-11  Max(alpha.sludge) = 0.00584452
GAMG:  Solving for p_rgh, Initial residual = 0.999985, Final residual = 0.00778183, No Iterations 13
time step continuity errors : sum local = 1.75185e-05, global = 9.77206e-07, cumulative = -1.64332e+11
GAMG:  Solving for p_rgh, Initial residual = 6.81343e-12, Final residual = 6.81343e-12, No Iterations 0
time step continuity errors : sum local = 7.487e+11, global = 3.37441e-05, cumulative = -1.64332e+11
GAMG:  Solving for p_rgh, Initial residual = 6.81818e-12, Final residual = 6.81818e-12, No Iterations 0
time step continuity errors : sum local = 7.49222e+11, global = 3.03723e-05, cumulative = -1.64332e+11
DILUPBiCGStab:  Solving for epsilon, Initial residual = 1, Final residual = 7.65419e-08, No Iterations 32
bounding epsilon, min: -4.20957e+68 max: 1.6698e+92 average: 2.561e+88
DILUPBiCGStab:  Solving for k, Initial residual = 2.37969e-10, Final residual = 1.63459e-10, No Iterations 1
bounding k, min: -1.7597e+35 max: 1.8536e+69 average: 1.71798e+66
ExecutionTime = 27.1 s  ClockTime = 28 s

Courant Number mean: 3.74885e+11 max: 1.4974e+15
deltaT = 5.4381e-51
Time = 358.573

PIMPLE: iteration 1
smoothSolver:  Solving for alpha.sludge, Initial residual = 0.00150806, Final residual = 1.32776e-11, No Iterations 1
Phase-1 volume fraction = 0.00098703  Min(alpha.sludge) = -1.37836e-11  Max(alpha.sludge) = 0.00584452
Applying the previous iteration correction flux
MULES: Correcting alpha.sludge
MULES: Correcting alpha.sludge
MULES: Correcting alpha.sludge
Phase-1 volume fraction = 0.00098703  Min(alpha.sludge) = -1.37836e-11  Max(alpha.sludge) = 0.00584452
DICPCG:  Solving for alpha.sludge, Initial residual = 1, Final residual = 1.27899e-13, No Iterations 4
Phase-1 volume fraction = 0.000983835  Min(alpha.sludge) = -1.37836e-11  Max(alpha.sludge) = 0.00584452
GAMG:  Solving for p_rgh, Initial residual = 1, Final residual = 0.00463955, No Iterations 8
time step continuity errors : sum local = 2.63037e-06, global = 1.56302e-14, cumulative = -1.64332e+11
GAMG:  Solving for p_rgh, Initial residual = 7.39086e-13, Final residual = 7.39086e-13, No Iterations 0
time step continuity errors : sum local = 1.55993e+39, global = -1.27377e+23, cumulative = -1.27377e+23
GAMG:  Solving for p_rgh, Initial residual = 7.39155e-13, Final residual = 7.39155e-13, No Iterations 0
time step continuity errors : sum local = 1.56008e+39, global = -2.29574e+23, cumulative = -3.56951e+23
#0  Foam::error::printStack(Foam::Ostream&) at ??:?
#1  Foam::sigFpe::sigHandler(int) at ??:?
#2  ? in "/lib/x86_64-linux-gnu/libc.so.6"
#3  double Foam::sumProd<double>(Foam::UList<double> const&, Foam::UList<double> const&) at ??:?
#4  Foam::PBiCGStab::solve(Foam::Field<double>&, Foam::Field<double> const&, unsigned char) const at ??:?
#5  Foam::fvMatrix<double>::solveSegregated(Foam::dictionary const&) at ??:?
#6  Foam::fvMatrix<double>::solveSegregatedOrCoupled(Foam::dictionary const&) at ??:?
#7  Foam::fvMesh::solve(Foam::fvMatrix<double>&, Foam::dictionary const&) const at ??:?
#8  Foam::SolverPerformance<double> Foam::solve<double>(Foam::tmp<Foam::fvMatrix<double> > const&) at ??:?
#9  ? at ??:?
#10  ? at ??:?
#11  __libc_start_main in "/lib/x86_64-linux-gnu/libc.so.6"
#12  ? at ??:?
Floating point exception (core dumped)
