/*---------------------------------------------------------------------------*\
| =========                 |                                                 |
| \\      /  F ield         | OpenFOAM: The Open Source CFD Toolbox           |
|  \\    /   O peration     | Version:  v1712                                 |
|   \\  /    A nd           | Web:      www.OpenFOAM.com                      |
|    \\/     M anipulation  |                                                 |
\*---------------------------------------------------------------------------*/
Build  : v1712
Arch   : "LSB;label=32;scalar=64"
Exec   : surfaceBooleanFeatures intersection vessel.stl spargerShaft.stl -perturb
Date   : Jan 05 2018
Time   : 07:05:33
Host   : "inabower-PC"
PID    : 29867
I/O    : uncollated
Case   : /media/inabower/3C9455F89455B55C/inabower/tutorials-v1712/mesh/foamyHexMesh/mixerVessel
nProcs : 1
trapFpe: Floating point exception trapping enabled (FOAM_SIGFPE).
fileModificationChecking : Monitoring run-time modified files using timeStampMaster (fileModificationSkew 10)
allowSystemOperations : Allowing user-supplied system call operations

// * * * * * * * * * * * * * * * * * * * * * * * * * * * * * * * * * * * * * //
Create time

Reading surface vessel.stl
vessel.stl statistics:
Triangles    : 3628 in 2 region(s)
Vertices     : 1816
Bounding Box : (-0.2649999857 -0.2649999857 -0.1017529964) (0.2649999857 0.2649999857 1.299999952)

Reading surface spargerShaft.stl
spargerShaft.stl statistics:
Triangles    : 720 in 1 region(s)
Vertices     : 396
Bounding Box : (-0.01999999955 -0.01999999955 -0.200000003) (0.01999999955 0.01999999955 -0.009999999776)

Surface triangles 3628 number of zones (orientation or non-manifold):1
Surface triangles 720 number of zones (orientation or non-manifold):1
Determining intersections of 5442 edges with surface of 720 triangles
Determined intersections:
    edges               : 5442
    non-degenerate cuts : 72
    degenerate cuts     : 0

Determining intersections of 1116 edges with surface of 3628 triangles
Determined intersections:
    edges               : 1116
    non-degenerate cuts : 72
    degenerate cuts     : 0

points      : 144
edges       : 140
boundingBox : (-0.01999999955 -0.01999999955 -0.1013487317) (0.01999999955 0.01999999955 -0.1013487267)
point classification :
    convex feature points          :        0
    concave feature points         :        0
    mixed feature points           :        0
    other (non-feature) points     :      144
edge classification :
    external (convex angle) edges  :      140
    internal (concave angle) edges :        0
    flat region edges              :        0
    open edges                     :        0
    multiply connected edges       :        0

Writing extendedEdgeMesh components to "/media/inabower/3C9455F89455B55C/inabower/tutorials-v1712/mesh/foamyHexMesh/mixerVessel/constant/extendedFeatureEdgeMesh/vessel_spargerShaft_intersection"
Writing 0 convex feature points to "/media/inabower/3C9455F89455B55C/inabower/tutorials-v1712/mesh/foamyHexMesh/mixerVessel/constant/extendedFeatureEdgeMesh/vessel_spargerShaft_intersection_convexFeaturePts.obj"
Writing 0 concave feature points to "/media/inabower/3C9455F89455B55C/inabower/tutorials-v1712/mesh/foamyHexMesh/mixerVessel/constant/extendedFeatureEdgeMesh/vessel_spargerShaft_intersection_concaveFeaturePts.obj"
Writing 0 mixed feature points to "/media/inabower/3C9455F89455B55C/inabower/tutorials-v1712/mesh/foamyHexMesh/mixerVessel/constant/extendedFeatureEdgeMesh/vessel_spargerShaft_intersection_mixedFeaturePts.obj"
Writing 0 mixed feature point structure to "/media/inabower/3C9455F89455B55C/inabower/tutorials-v1712/mesh/foamyHexMesh/mixerVessel/constant/extendedFeatureEdgeMesh/vessel_spargerShaft_intersection_mixedFeaturePtsStructure.obj"
Writing 140 external edges to "/media/inabower/3C9455F89455B55C/inabower/tutorials-v1712/mesh/foamyHexMesh/mixerVessel/constant/extendedFeatureEdgeMesh/vessel_spargerShaft_intersection_externalEdges.obj"
Writing 0 internal edges to "/media/inabower/3C9455F89455B55C/inabower/tutorials-v1712/mesh/foamyHexMesh/mixerVessel/constant/extendedFeatureEdgeMesh/vessel_spargerShaft_intersection_internalEdges.obj"
Writing 0 flat edges to "/media/inabower/3C9455F89455B55C/inabower/tutorials-v1712/mesh/foamyHexMesh/mixerVessel/constant/extendedFeatureEdgeMesh/vessel_spargerShaft_intersection_flatEdges.obj"
Writing 0 open edges to "/media/inabower/3C9455F89455B55C/inabower/tutorials-v1712/mesh/foamyHexMesh/mixerVessel/constant/extendedFeatureEdgeMesh/vessel_spargerShaft_intersection_openEdges.obj"
Writing 0 multiple edges to "/media/inabower/3C9455F89455B55C/inabower/tutorials-v1712/mesh/foamyHexMesh/mixerVessel/constant/extendedFeatureEdgeMesh/vessel_spargerShaft_intersection_multipleEdges.obj"
Writing 0 region edges to "/media/inabower/3C9455F89455B55C/inabower/tutorials-v1712/mesh/foamyHexMesh/mixerVessel/constant/extendedFeatureEdgeMesh/vessel_spargerShaft_intersection_regionEdges.obj"
Writing 140 edge directions to "/media/inabower/3C9455F89455B55C/inabower/tutorials-v1712/mesh/foamyHexMesh/mixerVessel/constant/extendedFeatureEdgeMesh/vessel_spargerShaft_intersection_edgeDirections.obj"

Writing featureEdgeMesh to "/media/inabower/3C9455F89455B55C/inabower/tutorials-v1712/mesh/foamyHexMesh/mixerVessel/constant/triSurface/vessel_spargerShaft_intersection.eMesh"
End

