/*---------------------------------------------------------------------------*\
| =========                 |                                                 |
| \\      /  F ield         | OpenFOAM: The Open Source CFD Toolbox           |
|  \\    /   O peration     | Version:  v1712                                 |
|   \\  /    A nd           | Web:      www.OpenFOAM.com                      |
|    \\/     M anipulation  |                                                 |
\*---------------------------------------------------------------------------*/
Build  : v1712
Arch   : "LSB;label=32;scalar=64"
Exec   : chtMultiRegionSimpleFoam
Date   : Jan 04 2018
Time   : 20:46:32
Host   : "inabower-PC"
PID    : 30561
I/O    : uncollated
Case   : /home/inabower/OpenFOAM/tutorials-v1712/heatTransfer/chtMultiRegionSimpleFoam/externalCoupledHeater
nProcs : 1
trapFpe: Floating point exception trapping enabled (FOAM_SIGFPE).
fileModificationChecking : Monitoring run-time modified files using timeStampMaster (fileModificationSkew 10)
allowSystemOperations : Allowing user-supplied system call operations

// * * * * * * * * * * * * * * * * * * * * * * * * * * * * * * * * * * * * * //
Create time

Create fluid mesh for region bottomWater for time = 0

Create fluid mesh for region topAir for time = 0

Create solid mesh for region heater for time = 0

Create solid mesh for region leftSolid for time = 0

Create solid mesh for region rightSolid for time = 0

*** Reading fluid mesh thermophysical properties for region bottomWater

    Adding to thermoFluid

Selecting thermodynamics package 
{
    type            heRhoThermo;
    mixture         pureMixture;
    transport       const;
    thermo          hConst;
    equationOfState rhoConst;
    specie          specie;
    energy          sensibleEnthalpy;
}

    Adding to rhoFluid

    Adding to UFluid

    Adding to phiFluid

    Adding to gFluid

    Adding to hRefFluid

    Adding to ghFluid

    Adding to ghfFluid

    Adding to turbulence

Selecting turbulence model type laminar
Selecting laminar stress model Stokes
Selecting radiationModel none
    Adding MRF

No MRF models present

    Adding fvOptions

No finite volume options present

*** Reading fluid mesh thermophysical properties for region topAir

    Adding to thermoFluid

Selecting thermodynamics package 
{
    type            heRhoThermo;
    mixture         pureMixture;
    transport       const;
    thermo          hConst;
    equationOfState perfectGas;
    specie          specie;
    energy          sensibleEnthalpy;
}

    Adding to rhoFluid

    Adding to UFluid

    Adding to phiFluid

    Adding to gFluid

    Adding to hRefFluid

    Adding to ghFluid

    Adding to ghfFluid

    Adding to turbulence

Selecting turbulence model type laminar
Selecting laminar stress model Stokes
Selecting radiationModel none
    Adding MRF

No MRF models present

    Adding fvOptions

No finite volume options present

*** Reading solid mesh thermophysical properties for region heater

    Adding to thermos

Selecting thermodynamics package 
{
    type            heSolidThermo;
    mixture         pureMixture;
    transport       constIso;
    thermo          hConst;
    equationOfState rhoConst;
    specie          specie;
    energy          sensibleEnthalpy;
}

    Adding to radiations

Selecting radiationModel none
    Adding fvOptions

No finite volume options present

*** Reading solid mesh thermophysical properties for region leftSolid

    Adding to thermos

Selecting thermodynamics package 
{
    type            heSolidThermo;
    mixture         pureMixture;
    transport       constIso;
    thermo          hConst;
    equationOfState rhoConst;
    specie          specie;
    energy          sensibleEnthalpy;
}

    Adding to radiations

Selecting radiationModel none
    Adding fvOptions

No finite volume options present

*** Reading solid mesh thermophysical properties for region rightSolid

    Adding to thermos

Selecting thermodynamics package 
{
    type            heSolidThermo;
    mixture         pureMixture;
    transport       constIso;
    thermo          hConst;
    equationOfState rhoConst;
    specie          specie;
    energy          sensibleEnthalpy;
}

    Adding to radiations

Selecting radiationModel none
    Adding fvOptions

No finite volume options present

externalCoupled: initialize
    directory: "/home/inabower/OpenFOAM/tutorials-v1712/heatTransfer/chtMultiRegionSimpleFoam/externalCoupledHeater/comms"
    slave-first: true
externalCoupled: Communicating with regions:
Region: heater_topAir
    patchGroup: coupleGroup	
        Reading fields: 1(T)
        Writing fields: 1(T)

Time = 1


Solving for fluid region bottomWater
DILUPBiCGStab:  Solving for Ux, Initial residual = 1, Final residual = 0.00036984226, No Iterations 1
DILUPBiCGStab:  Solving for Uy, Initial residual = 1, Final residual = 0.010062034, No Iterations 1
DILUPBiCGStab:  Solving for Uz, Initial residual = 1, Final residual = 0.014866633, No Iterations 1
DILUPBiCGStab:  Solving for h, Initial residual = 1, Final residual = 0.00025642558, No Iterations 1
Min/max T:161.40543 444.73288
GAMG:  Solving for p_rgh, Initial residual = 0.97380566, Final residual = 0.0071763117, No Iterations 2
time step continuity errors : sum local = 14075.83, global = 1711.9653, cumulative = 1711.9653
Min/max rho:1000 1000

Solving for fluid region topAir
DILUPBiCGStab:  Solving for Ux, Initial residual = 1, Final residual = 8.6283406e-05, No Iterations 1
DILUPBiCGStab:  Solving for Uy, Initial residual = 1, Final residual = 0.00093100686, No Iterations 1
DILUPBiCGStab:  Solving for Uz, Initial residual = 0.76444294, Final residual = 0.0012679462, No Iterations 1
DILUPBiCGStab:  Solving for h, Initial residual = 1, Final residual = 0.017397491, No Iterations 1
Min/max T:299.99978 300.00034
GAMG:  Solving for p_rgh, Initial residual = 0.89485782, Final residual = 0.0029734242, No Iterations 2
time step continuity errors : sum local = 0.083160028, global = -0.058027215, cumulative = 1711.9073
Min/max rho:1.1586214 1.1586235

Solving for solid region heater
DICPCG:  Solving for h, Initial residual = 1, Final residual = 0.056919515, No Iterations 1
Min/max T:298.95859 500

Solving for solid region leftSolid
DICPCG:  Solving for h, Initial residual = 1, Final residual = 0.013566432, No Iterations 2
Min/max T:300 301.08745

Solving for solid region rightSolid
DICPCG:  Solving for h, Initial residual = 1, Final residual = 0.0092702893, No Iterations 2
Min/max T:298.92721 300.00192
ExecutionTime = 0.06 s  ClockTime = 0 s

externalCoupled: removing lock file
externalCoupled: waiting for lock file to appear "/home/inabower/OpenFOAM/tutorials-v1712/heatTransfer/chtMultiRegionSimpleFoam/externalCoupledHeater/comms/OpenFOAM.lock"
externalCoupled: wait time = 1
externalCoupled: found lock file "/home/inabower/OpenFOAM/tutorials-v1712/heatTransfer/chtMultiRegionSimpleFoam/externalCoupledHeater/comms/OpenFOAM.lock"
externalCoupled: reading data from "/home/inabower/OpenFOAM/tutorials-v1712/heatTransfer/chtMultiRegionSimpleFoam/externalCoupledHeater/comms/heater_topAir/coupleGroup/T.in"
externalCoupled: writing data to "/home/inabower/OpenFOAM/tutorials-v1712/heatTransfer/chtMultiRegionSimpleFoam/externalCoupledHeater/comms/heater_topAir/coupleGroup/T.out"
externalCoupled: removing lock file
externalCoupled: waiting for lock file to appear "/home/inabower/OpenFOAM/tutorials-v1712/heatTransfer/chtMultiRegionSimpleFoam/externalCoupledHeater/comms/OpenFOAM.lock"
externalCoupled: wait time = 1
externalCoupled: wait time = 2
externalCoupled: wait time = 3
externalCoupled: wait time = 4
externalCoupled: wait time = 5
externalCoupled: wait time = 6
externalCoupled: wait time = 7
externalCoupled: wait time = 8
externalCoupled: wait time = 9
externalCoupled: wait time = 10
externalCoupled: found lock file "/home/inabower/OpenFOAM/tutorials-v1712/heatTransfer/chtMultiRegionSimpleFoam/externalCoupledHeater/comms/OpenFOAM.lock"
externalCoupled: removing data files written by master
externalCoupled: reading data from "/home/inabower/OpenFOAM/tutorials-v1712/heatTransfer/chtMultiRegionSimpleFoam/externalCoupledHeater/comms/heater_topAir/coupleGroup/T.in"
Time = 2


Solving for fluid region bottomWater
DILUPBiCGStab:  Solving for Ux, Initial residual = 0.29804167, Final residual = 0.010370187, No Iterations 1
DILUPBiCGStab:  Solving for Uy, Initial residual = 0.22179273, Final residual = 0.0080887447, No Iterations 1
DILUPBiCGStab:  Solving for Uz, Initial residual = 0.21712403, Final residual = 0.011132602, No Iterations 1
DILUPBiCGStab:  Solving for h, Initial residual = 0.48082985, Final residual = 0.014197599, No Iterations 1
Min/max T:165.3862 534.47842
GAMG:  Solving for p_rgh, Initial residual = 0.99827806, Final residual = 0.0072558993, No Iterations 2
time step continuity errors : sum local = 4217.1636, global = -2812.2629, cumulative = -1100.3556
Min/max rho:1000 1000

Solving for fluid region topAir
DILUPBiCGStab:  Solving for Ux, Initial residual = 0.23807089, Final residual = 0.00048239499, No Iterations 1
DILUPBiCGStab:  Solving for Uy, Initial residual = 0.27914103, Final residual = 0.00084547505, No Iterations 1
DILUPBiCGStab:  Solving for Uz, Initial residual = 0.47209348, Final residual = 0.0015916877, No Iterations 1
DILUPBiCGStab:  Solving for h, Initial residual = 0.91172323, Final residual = 0.0063644807, No Iterations 1
Min/max T:298.92755 300.81173
GAMG:  Solving for p_rgh, Initial residual = 0.8180958, Final residual = 0.0026005198, No Iterations 2
time step continuity errors : sum local = 0.029707909, global = 0.011772732, cumulative = -1100.3438
Min/max rho:1.1554957 1.1627787

Solving for solid region heater
DICPCG:  Solving for h, Initial residual = 0.1959467, Final residual = 0.01494792, No Iterations 1
Min/max T:298.38944 500

Solving for solid region leftSolid
DICPCG:  Solving for h, Initial residual = 0.65879057, Final residual = 0.036217605, No Iterations 1
Min/max T:299.51845 301.47013

Solving for solid region rightSolid
DICPCG:  Solving for h, Initial residual = 0.57461471, Final residual = 0.036549666, No Iterations 1
Min/max T:298.43133 300.0019
ExecutionTime = 0.07 s  ClockTime = 11 s

Time = 3


Solving for fluid region bottomWater
DILUPBiCGStab:  Solving for Ux, Initial residual = 0.2577872, Final residual = 0.012962674, No Iterations 1
DILUPBiCGStab:  Solving for Uy, Initial residual = 0.59768103, Final residual = 0.041555564, No Iterations 1
DILUPBiCGStab:  Solving for Uz, Initial residual = 0.26265431, Final residual = 0.0090457014, No Iterations 1
DILUPBiCGStab:  Solving for h, Initial residual = 0.28051496, Final residual = 0.009604434, No Iterations 1
Min/max T:194.99554 481.05416
GAMG:  Solving for p_rgh, Initial residual = 0.59898763, Final residual = 0.0055749458, No Iterations 2
time step continuity errors : sum local = 2824.0855, global = -1822.2231, cumulative = -2922.5669
Min/max rho:1000 1000

Solving for fluid region topAir
DILUPBiCGStab:  Solving for Ux, Initial residual = 0.19653294, Final residual = 0.0016683682, No Iterations 1
DILUPBiCGStab:  Solving for Uy, Initial residual = 0.74230832, Final residual = 0.0024021946, No Iterations 1
DILUPBiCGStab:  Solving for Uz, Initial residual = 0.23414721, Final residual = 0.0014118623, No Iterations 1
DILUPBiCGStab:  Solving for h, Initial residual = 0.55354354, Final residual = 0.0048278473, No Iterations 1
Min/max T:298.67193 300.74455
GAMG:  Solving for p_rgh, Initial residual = 0.57187856, Final residual = 0.0041928518, No Iterations 2
time step continuity errors : sum local = 0.026692771, global = -0.024916966, cumulative = -2922.5918
Min/max rho:1.1557535 1.1637736

Solving for solid region heater
DICPCG:  Solving for h, Initial residual = 0.099509259, Final residual = 0.0080507866, No Iterations 1
Min/max T:298.69826 500

Solving for solid region leftSolid
DICPCG:  Solving for h, Initial residual = 0.44039195, Final residual = 0.019530381, No Iterations 1
Min/max T:299.1843 301.07546

Solving for solid region rightSolid
DICPCG:  Solving for h, Initial residual = 0.42071376, Final residual = 0.022638966, No Iterations 1
Min/max T:298.30571 299.89687
ExecutionTime = 0.08 s  ClockTime = 11 s

Time = 4


Solving for fluid region bottomWater
DILUPBiCGStab:  Solving for Ux, Initial residual = 0.19467643, Final residual = 0.0090599963, No Iterations 1
DILUPBiCGStab:  Solving for Uy, Initial residual = 0.64159618, Final residual = 0.043244778, No Iterations 1
DILUPBiCGStab:  Solving for Uz, Initial residual = 0.28894045, Final residual = 0.015425045, No Iterations 1
DILUPBiCGStab:  Solving for h, Initial residual = 0.21541624, Final residual = 0.0079539558, No Iterations 1
Min/max T:212.01241 439.9499
GAMG:  Solving for p_rgh, Initial residual = 0.74691201, Final residual = 0.0039929981, No Iterations 2
time step continuity errors : sum local = 2448.6176, global = 410.68897, cumulative = -2511.9029
Min/max rho:1000 1000

Solving for fluid region topAir
DILUPBiCGStab:  Solving for Ux, Initial residual = 0.25725272, Final residual = 0.0005301491, No Iterations 1
DILUPBiCGStab:  Solving for Uy, Initial residual = 0.59645717, Final residual = 0.0018659653, No Iterations 1
DILUPBiCGStab:  Solving for Uz, Initial residual = 0.11828543, Final residual = 0.00042075922, No Iterations 1
DILUPBiCGStab:  Solving for h, Initial residual = 0.30928305, Final residual = 0.0024884469, No Iterations 1
Min/max T:298.61393 300.78908
GAMG:  Solving for p_rgh, Initial residual = 0.79818627, Final residual = 0.0040943579, No Iterations 3
time step continuity errors : sum local = 0.018390285, global = -0.018072893, cumulative = -2511.921
Min/max rho:1.155582 1.1639995

Solving for solid region heater
DICPCG:  Solving for h, Initial residual = 0.063556201, Final residual = 0.0046223957, No Iterations 1
Min/max T:299.3693 500

Solving for solid region leftSolid
DICPCG:  Solving for h, Initial residual = 0.30455864, Final residual = 0.017662818, No Iterations 1
Min/max T:299.05543 300.5808

Solving for solid region rightSolid
DICPCG:  Solving for h, Initial residual = 0.29427669, Final residual = 0.017245882, No Iterations 1
Min/max T:298.32348 299.92606
ExecutionTime = 0.08 s  ClockTime = 11 s

Time = 5


Solving for fluid region bottomWater
DILUPBiCGStab:  Solving for Ux, Initial residual = 0.23424731, Final residual = 0.012529535, No Iterations 1
DILUPBiCGStab:  Solving for Uy, Initial residual = 0.31711406, Final residual = 0.016016553, No Iterations 1
DILUPBiCGStab:  Solving for Uz, Initial residual = 0.24158067, Final residual = 0.012052518, No Iterations 1
DILUPBiCGStab:  Solving for h, Initial residual = 0.18670858, Final residual = 0.0082897817, No Iterations 1
Min/max T:223.42632 449.45282
GAMG:  Solving for p_rgh, Initial residual = 0.42791816, Final residual = 0.0040126748, No Iterations 3
time step continuity errors : sum local = 1650.9224, global = 1237.248, cumulative = -1274.6729
Min/max rho:1000 1000

Solving for fluid region topAir
DILUPBiCGStab:  Solving for Ux, Initial residual = 0.23032476, Final residual = 0.0015399381, No Iterations 1
DILUPBiCGStab:  Solving for Uy, Initial residual = 0.17306745, Final residual = 0.00065206324, No Iterations 1
DILUPBiCGStab:  Solving for Uz, Initial residual = 0.12102146, Final residual = 0.00042942067, No Iterations 1
DILUPBiCGStab:  Solving for h, Initial residual = 0.19169994, Final residual = 0.0015647031, No Iterations 1
Min/max T:298.59769 301.46262
GAMG:  Solving for p_rgh, Initial residual = 0.48457827, Final residual = 0.0039991806, No Iterations 3
time step continuity errors : sum local = 0.0082028971, global = -0.0081090336, cumulative = -1274.681
Min/max rho:1.1530002 1.1640629

Solving for solid region heater
DICPCG:  Solving for h, Initial residual = 0.046359553, Final residual = 0.0030521745, No Iterations 1
Min/max T:299.42979 500

Solving for solid region leftSolid
DICPCG:  Solving for h, Initial residual = 0.24094885, Final residual = 0.01792754, No Iterations 1
Min/max T:299.06831 300.21079

Solving for solid region rightSolid
DICPCG:  Solving for h, Initial residual = 0.21839799, Final residual = 0.014010242, No Iterations 1
Min/max T:298.18886 300.07831
ExecutionTime = 0.09 s  ClockTime = 11 s

externalCoupled: writing data to "/home/inabower/OpenFOAM/tutorials-v1712/heatTransfer/chtMultiRegionSimpleFoam/externalCoupledHeater/comms/heater_topAir/coupleGroup/T.out"
externalCoupled: removing lock file
externalCoupled: waiting for lock file to appear "/home/inabower/OpenFOAM/tutorials-v1712/heatTransfer/chtMultiRegionSimpleFoam/externalCoupledHeater/comms/OpenFOAM.lock"
externalCoupled: wait time = 1
externalCoupled: wait time = 2
externalCoupled: wait time = 3
externalCoupled: wait time = 4
externalCoupled: wait time = 5
externalCoupled: wait time = 6
externalCoupled: wait time = 7
externalCoupled: wait time = 8
externalCoupled: wait time = 9
externalCoupled: wait time = 10
externalCoupled: found lock file "/home/inabower/OpenFOAM/tutorials-v1712/heatTransfer/chtMultiRegionSimpleFoam/externalCoupledHeater/comms/OpenFOAM.lock"
externalCoupled: removing data files written by master
externalCoupled: reading data from "/home/inabower/OpenFOAM/tutorials-v1712/heatTransfer/chtMultiRegionSimpleFoam/externalCoupledHeater/comms/heater_topAir/coupleGroup/T.in"
Time = 6


Solving for fluid region bottomWater
DILUPBiCGStab:  Solving for Ux, Initial residual = 0.21486892, Final residual = 0.0077745856, No Iterations 1
DILUPBiCGStab:  Solving for Uy, Initial residual = 0.43349096, Final residual = 0.024337044, No Iterations 1
DILUPBiCGStab:  Solving for Uz, Initial residual = 0.21284686, Final residual = 0.0086666351, No Iterations 1
DILUPBiCGStab:  Solving for h, Initial residual = 0.16565613, Final residual = 0.0079718136, No Iterations 1
Min/max T:230.68936 455.8699
GAMG:  Solving for p_rgh, Initial residual = 0.73829487, Final residual = 0.0066406264, No Iterations 2
time step continuity errors : sum local = 1587.2492, global = 1238.5181, cumulative = -36.162941
Min/max rho:1000 1000

Solving for fluid region topAir
DILUPBiCGStab:  Solving for Ux, Initial residual = 0.17241911, Final residual = 0.0012322475, No Iterations 1
DILUPBiCGStab:  Solving for Uy, Initial residual = 0.49871639, Final residual = 0.0010225888, No Iterations 1
DILUPBiCGStab:  Solving for Uz, Initial residual = 0.12525939, Final residual = 0.00050115212, No Iterations 1
DILUPBiCGStab:  Solving for h, Initial residual = 0.13360091, Final residual = 0.0012595559, No Iterations 1
Min/max T:298.59091 302.55841
GAMG:  Solving for p_rgh, Initial residual = 0.41717138, Final residual = 0.0031265151, No Iterations 2
time step continuity errors : sum local = 0.006161883, global = 0.0053742606, cumulative = -36.157567
Min/max rho:1.1488245 1.1640893

Solving for solid region heater
DICPCG:  Solving for h, Initial residual = 0.036785253, Final residual = 0.0021130485, No Iterations 1
Min/max T:299.42081 500

Solving for solid region leftSolid
DICPCG:  Solving for h, Initial residual = 0.17868968, Final residual = 0.010502329, No Iterations 1
Min/max T:299.06035 300.17035

Solving for solid region rightSolid
DICPCG:  Solving for h, Initial residual = 0.1693059, Final residual = 0.013149969, No Iterations 1
Min/max T:298.1515 300.76788
ExecutionTime = 0.1 s  ClockTime = 21 s

Time = 7


Solving for fluid region bottomWater
DILUPBiCGStab:  Solving for Ux, Initial residual = 0.18486304, Final residual = 0.012614621, No Iterations 1
DILUPBiCGStab:  Solving for Uy, Initial residual = 0.21172081, Final residual = 0.010472467, No Iterations 1
DILUPBiCGStab:  Solving for Uz, Initial residual = 0.18165065, Final residual = 0.0079853911, No Iterations 1
DILUPBiCGStab:  Solving for h, Initial residual = 0.14515165, Final residual = 0.0071933993, No Iterations 1
Min/max T:234.84797 460.00658
GAMG:  Solving for p_rgh, Initial residual = 0.36368684, Final residual = 0.0017978835, No Iterations 3
time step continuity errors : sum local = 358.22474, global = -128.37227, cumulative = -164.52984
Min/max rho:1000 1000

Solving for fluid region topAir
DILUPBiCGStab:  Solving for Ux, Initial residual = 0.13104547, Final residual = 0.00067418409, No Iterations 1
DILUPBiCGStab:  Solving for Uy, Initial residual = 0.34679311, Final residual = 0.00077978676, No Iterations 1
DILUPBiCGStab:  Solving for Uz, Initial residual = 0.069077157, Final residual = 0.00027661325, No Iterations 1
DILUPBiCGStab:  Solving for h, Initial residual = 0.10368064, Final residual = 0.0011309415, No Iterations 1
Min/max T:298.46909 304.10756
GAMG:  Solving for p_rgh, Initial residual = 0.41745716, Final residual = 0.0031597092, No Iterations 3
time step continuity errors : sum local = 0.004461644, global = 0.0044111865, cumulative = -164.52543
Min/max rho:1.1429723 1.1645645

Solving for solid region heater
DICPCG:  Solving for h, Initial residual = 0.030690241, Final residual = 0.0015342848, No Iterations 1
Min/max T:299.56593 500

Solving for solid region leftSolid
DICPCG:  Solving for h, Initial residual = 0.15486666, Final residual = 0.0097854535, No Iterations 1
Min/max T:298.9959 300.30116

Solving for solid region rightSolid
DICPCG:  Solving for h, Initial residual = 0.16094314, Final residual = 0.013183556, No Iterations 1
Min/max T:297.99058 301.68796
ExecutionTime = 0.1 s  ClockTime = 21 s

Time = 8


Solving for fluid region bottomWater
DILUPBiCGStab:  Solving for Ux, Initial residual = 0.15969935, Final residual = 0.009319069, No Iterations 1
DILUPBiCGStab:  Solving for Uy, Initial residual = 0.32978416, Final residual = 0.023322705, No Iterations 1
DILUPBiCGStab:  Solving for Uz, Initial residual = 0.15724309, Final residual = 0.0076545618, No Iterations 1
DILUPBiCGStab:  Solving for h, Initial residual = 0.12857612, Final residual = 0.0064756561, No Iterations 1
Min/max T:239.53833 463.11368
GAMG:  Solving for p_rgh, Initial residual = 0.377262, Final residual = 0.0033040957, No Iterations 3
time step continuity errors : sum local = 544.28331, global = -373.94265, cumulative = -538.46808
Min/max rho:1000 1000

Solving for fluid region topAir
DILUPBiCGStab:  Solving for Ux, Initial residual = 0.071734821, Final residual = 0.00017402701, No Iterations 1
DILUPBiCGStab:  Solving for Uy, Initial residual = 0.24884803, Final residual = 0.00060368663, No Iterations 1
DILUPBiCGStab:  Solving for Uz, Initial residual = 0.05314758, Final residual = 0.00015348993, No Iterations 1
DILUPBiCGStab:  Solving for h, Initial residual = 0.091281277, Final residual = 0.0010747477, No Iterations 1
Min/max T:298.34271 306.07402
GAMG:  Solving for p_rgh, Initial residual = 0.18512081, Final residual = 0.0009911003, No Iterations 4
time step continuity errors : sum local = 0.00076238898, global = 0.00074510552, cumulative = -538.46734
Min/max rho:1.1356289 1.1650578

Solving for solid region heater
DICPCG:  Solving for h, Initial residual = 0.026624307, Final residual = 0.0012036605, No Iterations 1
Min/max T:299.63955 500

Solving for solid region leftSolid
DICPCG:  Solving for h, Initial residual = 0.15230604, Final residual = 0.0072064658, No Iterations 1
Min/max T:298.98182 300.43548

Solving for solid region rightSolid
DICPCG:  Solving for h, Initial residual = 0.13326179, Final residual = 0.011204055, No Iterations 1
Min/max T:297.91384 302.81431
ExecutionTime = 0.11 s  ClockTime = 21 s

Time = 9


Solving for fluid region bottomWater
DILUPBiCGStab:  Solving for Ux, Initial residual = 0.1141655, Final residual = 0.0048483332, No Iterations 1
DILUPBiCGStab:  Solving for Uy, Initial residual = 0.14942004, Final residual = 0.0075586591, No Iterations 1
DILUPBiCGStab:  Solving for Uz, Initial residual = 0.13878123, Final residual = 0.0065240066, No Iterations 1
DILUPBiCGStab:  Solving for h, Initial residual = 0.1296667, Final residual = 0.0067219016, No Iterations 1
Min/max T:247.48287 465.5097
GAMG:  Solving for p_rgh, Initial residual = 0.47881068, Final residual = 0.0028109703, No Iterations 3
time step continuity errors : sum local = 205.83508, global = -128.0802, cumulative = -666.54754
Min/max rho:1000 1000

Solving for fluid region topAir
DILUPBiCGStab:  Solving for Ux, Initial residual = 0.066680266, Final residual = 0.00014522717, No Iterations 1
DILUPBiCGStab:  Solving for Uy, Initial residual = 0.27557092, Final residual = 0.00052155458, No Iterations 1
DILUPBiCGStab:  Solving for Uz, Initial residual = 0.04218895, Final residual = 9.9329721e-05, No Iterations 1
DILUPBiCGStab:  Solving for h, Initial residual = 0.084537795, Final residual = 0.0010513396, No Iterations 1
Min/max T:298.22913 308.38105
GAMG:  Solving for p_rgh, Initial residual = 0.34268413, Final residual = 0.0017218452, No Iterations 3
time step continuity errors : sum local = 0.00072575776, global = -0.00065451334, cumulative = -666.54819
Min/max rho:1.1271331 1.1655014

Solving for solid region heater
DICPCG:  Solving for h, Initial residual = 0.023728658, Final residual = 0.00097704736, No Iterations 1
Min/max T:299.79386 500

Solving for solid region leftSolid
DICPCG:  Solving for h, Initial residual = 0.15875062, Final residual = 0.0059935535, No Iterations 1
Min/max T:298.99163 300.59867

Solving for solid region rightSolid
DICPCG:  Solving for h, Initial residual = 0.12135971, Final residual = 0.0098002526, No Iterations 1
Min/max T:297.86413 304.11421
ExecutionTime = 0.12 s  ClockTime = 21 s

externalCoupled: writing data to "/home/inabower/OpenFOAM/tutorials-v1712/heatTransfer/chtMultiRegionSimpleFoam/externalCoupledHeater/comms/heater_topAir/coupleGroup/T.out"
externalCoupled: removing lock file
externalCoupled: waiting for lock file to appear "/home/inabower/OpenFOAM/tutorials-v1712/heatTransfer/chtMultiRegionSimpleFoam/externalCoupledHeater/comms/OpenFOAM.lock"
externalCoupled: wait time = 1
externalCoupled: wait time = 2
externalCoupled: wait time = 3
externalCoupled: wait time = 4
externalCoupled: wait time = 5
externalCoupled: wait time = 6
externalCoupled: wait time = 7
externalCoupled: wait time = 8
externalCoupled: wait time = 9
externalCoupled: wait time = 10
externalCoupled: found lock file "/home/inabower/OpenFOAM/tutorials-v1712/heatTransfer/chtMultiRegionSimpleFoam/externalCoupledHeater/comms/OpenFOAM.lock"
externalCoupled: removing data files written by master
externalCoupled: reading data from "/home/inabower/OpenFOAM/tutorials-v1712/heatTransfer/chtMultiRegionSimpleFoam/externalCoupledHeater/comms/heater_topAir/coupleGroup/T.in"
Time = 10


Solving for fluid region bottomWater
DILUPBiCGStab:  Solving for Ux, Initial residual = 0.1183386, Final residual = 0.0061210721, No Iterations 1
DILUPBiCGStab:  Solving for Uy, Initial residual = 0.17808752, Final residual = 0.0091364932, No Iterations 1
DILUPBiCGStab:  Solving for Uz, Initial residual = 0.13045554, Final residual = 0.0055621517, No Iterations 1
DILUPBiCGStab:  Solving for h, Initial residual = 0.11509132, Final residual = 0.005908452, No Iterations 1
Min/max T:255.83151 467.40346
GAMG:  Solving for p_rgh, Initial residual = 0.22379312, Final residual = 0.0016463832, No Iterations 3
time step continuity errors : sum local = 183.50473, global = 143.63463, cumulative = -522.91356
Min/max rho:1000 1000

Solving for fluid region topAir
DILUPBiCGStab:  Solving for Ux, Initial residual = 0.059156286, Final residual = 8.3470579e-05, No Iterations 1
DILUPBiCGStab:  Solving for Uy, Initial residual = 0.14412475, Final residual = 0.00032850165, No Iterations 1
DILUPBiCGStab:  Solving for Uz, Initial residual = 0.03770378, Final residual = 6.7887606e-05, No Iterations 1
DILUPBiCGStab:  Solving for h, Initial residual = 0.083897881, Final residual = 0.0010917759, No Iterations 1
Min/max T:298.18723 310.92339
GAMG:  Solving for p_rgh, Initial residual = 0.28432515, Final residual = 0.0024543511, No Iterations 3
time step continuity errors : sum local = 0.00081729424, global = -0.00077170496, cumulative = -522.91433
Min/max rho:1.1179168 1.1656652

Solving for solid region heater
DICPCG:  Solving for h, Initial residual = 0.021466538, Final residual = 0.00082623748, No Iterations 1
Min/max T:299.94631 500

Solving for solid region leftSolid
DICPCG:  Solving for h, Initial residual = 0.1619187, Final residual = 0.0051853897, No Iterations 1
Min/max T:299.04031 300.78064

Solving for solid region rightSolid
DICPCG:  Solving for h, Initial residual = 0.11742512, Final residual = 0.0091191552, No Iterations 1
Min/max T:297.91398 305.55887

energyCoupling: 1/10

Solving for fluid region bottomWater
DILUPBiCGStab:  Solving for h, Initial residual = 0.10986353, Final residual = 0.0053184808, No Iterations 1
Min/max T:260.43792 468.92784

Solving for fluid region topAir
DILUPBiCGStab:  Solving for h, Initial residual = 0.089536974, Final residual = 0.0012160833, No Iterations 1
Min/max T:298.14389 313.59963

Solving for solid region heater
DICPCG:  Solving for h, Initial residual = 0.019587237, Final residual = 0.00072258548, No Iterations 1
Min/max T:300.10315 500

Solving for solid region leftSolid
DICPCG:  Solving for h, Initial residual = 0.15096828, Final residual = 0.0043238139, No Iterations 1
Min/max T:299.09061 300.95314

Solving for solid region rightSolid
DICPCG:  Solving for h, Initial residual = 0.11037481, Final residual = 0.0083415057, No Iterations 1
Min/max T:297.92956 307.11371

energyCoupling: 2/10

Solving for fluid region bottomWater
DILUPBiCGStab:  Solving for h, Initial residual = 0.096269054, Final residual = 0.0048252944, No Iterations 1
Min/max T:264.70047 470.1804

Solving for fluid region topAir
DILUPBiCGStab:  Solving for h, Initial residual = 0.096077422, Final residual = 0.0013507028, No Iterations 1
Min/max T:298.08711 316.32701

Solving for solid region heater
DICPCG:  Solving for h, Initial residual = 0.018003914, Final residual = 0.00064883357, No Iterations 1
Min/max T:300.31654 500

Solving for solid region leftSolid
DICPCG:  Solving for h, Initial residual = 0.13241032, Final residual = 0.0033283263, No Iterations 1
Min/max T:299.14309 301.09894

Solving for solid region rightSolid
DICPCG:  Solving for h, Initial residual = 0.1013575, Final residual = 0.0076188134, No Iterations 1
Min/max T:297.90355 308.73877

energyCoupling: 3/10

Solving for fluid region bottomWater
DILUPBiCGStab:  Solving for h, Initial residual = 0.088108702, Final residual = 0.0044930923, No Iterations 1
Min/max T:266.97723 471.23481

Solving for fluid region topAir
DILUPBiCGStab:  Solving for h, Initial residual = 0.10337123, Final residual = 0.0014577465, No Iterations 1
Min/max T:297.99559 319.04444

Solving for solid region heater
DICPCG:  Solving for h, Initial residual = 0.016613847, Final residual = 0.00059252218, No Iterations 1
Min/max T:300.49349 500

Solving for solid region leftSolid
DICPCG:  Solving for h, Initial residual = 0.11435018, Final residual = 0.0026910325, No Iterations 1
Min/max T:299.20928 301.22347

Solving for solid region rightSolid
DICPCG:  Solving for h, Initial residual = 0.091681729, Final residual = 0.0068944228, No Iterations 1
Min/max T:297.80813 310.40059

energyCoupling: 4/10

Solving for fluid region bottomWater
DILUPBiCGStab:  Solving for h, Initial residual = 0.081838667, Final residual = 0.0042596519, No Iterations 1
Min/max T:268.15616 472.23679

Solving for fluid region topAir
DILUPBiCGStab:  Solving for h, Initial residual = 0.1004249, Final residual = 0.0013876905, No Iterations 1
Min/max T:297.89482 321.70924

Solving for solid region heater
DICPCG:  Solving for h, Initial residual = 0.015388587, Final residual = 0.00055138622, No Iterations 1
Min/max T:300.70239 500

Solving for solid region leftSolid
DICPCG:  Solving for h, Initial residual = 0.097275334, Final residual = 0.0023267448, No Iterations 1
Min/max T:299.22602 301.32872

Solving for solid region rightSolid
DICPCG:  Solving for h, Initial residual = 0.08259791, Final residual = 0.0062231208, No Iterations 1
Min/max T:297.68809 312.07148

energyCoupling: 5/10

Solving for fluid region bottomWater
DILUPBiCGStab:  Solving for h, Initial residual = 0.076784906, Final residual = 0.0040885263, No Iterations 1
Min/max T:268.87064 473.10244

Solving for fluid region topAir
DILUPBiCGStab:  Solving for h, Initial residual = 0.090157695, Final residual = 0.0012041969, No Iterations 1
Min/max T:297.78992 324.29266

Solving for solid region heater
DICPCG:  Solving for h, Initial residual = 0.014276173, Final residual = 0.00052218014, No Iterations 1
Min/max T:300.95114 500

Solving for solid region leftSolid
DICPCG:  Solving for h, Initial residual = 0.081625028, Final residual = 0.002018832, No Iterations 1
Min/max T:299.18573 301.41469

Solving for solid region rightSolid
DICPCG:  Solving for h, Initial residual = 0.074634434, Final residual = 0.0056041266, No Iterations 1
Min/max T:297.57509 313.72934

energyCoupling: 6/10

Solving for fluid region bottomWater
DILUPBiCGStab:  Solving for h, Initial residual = 0.072134879, Final residual = 0.0039116801, No Iterations 1
Min/max T:269.86542 473.85772

Solving for fluid region topAir
DILUPBiCGStab:  Solving for h, Initial residual = 0.081197116, Final residual = 0.0010454838, No Iterations 1
Min/max T:297.68439 326.77623

Solving for solid region heater
DICPCG:  Solving for h, Initial residual = 0.013282614, Final residual = 0.00050020591, No Iterations 1
Min/max T:301.23885 500

Solving for solid region leftSolid
DICPCG:  Solving for h, Initial residual = 0.066917319, Final residual = 0.0017046005, No Iterations 1
Min/max T:299.14163 301.48069

Solving for solid region rightSolid
DICPCG:  Solving for h, Initial residual = 0.06732491, Final residual = 0.0050502711, No Iterations 1
Min/max T:297.4747 315.35714

energyCoupling: 7/10

Solving for fluid region bottomWater
DILUPBiCGStab:  Solving for h, Initial residual = 0.067894124, Final residual = 0.0036972893, No Iterations 1
Min/max T:267.9018 474.52224

Solving for fluid region topAir
DILUPBiCGStab:  Solving for h, Initial residual = 0.073242253, Final residual = 0.00090569194, No Iterations 1
Min/max T:297.58222 329.14916

Solving for solid region heater
DICPCG:  Solving for h, Initial residual = 0.012391938, Final residual = 0.0004816316, No Iterations 1
Min/max T:301.56225 500

Solving for solid region leftSolid
DICPCG:  Solving for h, Initial residual = 0.053467114, Final residual = 0.001389021, No Iterations 1
Min/max T:299.09504 301.52605

Solving for solid region rightSolid
DICPCG:  Solving for h, Initial residual = 0.060997182, Final residual = 0.0045390533, No Iterations 1
Min/max T:297.38221 316.94239

energyCoupling: 8/10

Solving for fluid region bottomWater
DILUPBiCGStab:  Solving for h, Initial residual = 0.064305382, Final residual = 0.0034386121, No Iterations 1
Min/max T:266.19366 475.11122

Solving for fluid region topAir
DILUPBiCGStab:  Solving for h, Initial residual = 0.065956428, Final residual = 0.00078451526, No Iterations 1
Min/max T:297.46977 331.40636

Solving for solid region heater
DICPCG:  Solving for h, Initial residual = 0.011590302, Final residual = 0.00046384746, No Iterations 1
Min/max T:301.91662 500

Solving for solid region leftSolid
DICPCG:  Solving for h, Initial residual = 0.041039956, Final residual = 0.0010974946, No Iterations 1
Min/max T:299.05335 301.55065

Solving for solid region rightSolid
DICPCG:  Solving for h, Initial residual = 0.05526886, Final residual = 0.0040977864, No Iterations 1
Min/max T:297.28719 318.4765

energyCoupling: 9/10

Solving for fluid region bottomWater
DILUPBiCGStab:  Solving for h, Initial residual = 0.061182514, Final residual = 0.0031585772, No Iterations 1
Min/max T:264.90924 475.63671

Solving for fluid region topAir
DILUPBiCGStab:  Solving for h, Initial residual = 0.059228322, Final residual = 0.00068053557, No Iterations 1
Min/max T:297.36423 333.54688

Solving for solid region heater
DICPCG:  Solving for h, Initial residual = 0.010867539, Final residual = 0.00044724786, No Iterations 1
Min/max T:302.29662 500

Solving for solid region leftSolid
DICPCG:  Solving for h, Initial residual = 0.030383946, Final residual = 0.00084808365, No Iterations 1
Min/max T:299.01796 301.55508

Solving for solid region rightSolid
DICPCG:  Solving for h, Initial residual = 0.050380064, Final residual = 0.0037107724, No Iterations 1
Min/max T:297.19742 319.9542

energyCoupling: 10/10

Solving for fluid region bottomWater
DILUPBiCGStab:  Solving for h, Initial residual = 0.05844876, Final residual = 0.0029411349, No Iterations 1
Min/max T:263.9485 476.10844

Solving for fluid region topAir
DILUPBiCGStab:  Solving for h, Initial residual = 0.053090631, Final residual = 0.00059148025, No Iterations 1
Min/max T:297.27894 335.57275

Solving for solid region heater
DICPCG:  Solving for h, Initial residual = 0.010215467, Final residual = 0.00043156207, No Iterations 1
Min/max T:302.6971 500

Solving for solid region leftSolid
DICPCG:  Solving for h, Initial residual = 0.021713478, Final residual = 0.0006597203, No Iterations 1
Min/max T:298.98985 301.54069

Solving for solid region rightSolid
DICPCG:  Solving for h, Initial residual = 0.046213154, Final residual = 0.0033813584, No Iterations 1
Min/max T:297.11924 321.37288
ExecutionTime = 0.14 s  ClockTime = 31 s

Time = 11


Solving for fluid region bottomWater
DILUPBiCGStab:  Solving for Ux, Initial residual = 0.08541017, Final residual = 0.0043969529, No Iterations 1
DILUPBiCGStab:  Solving for Uy, Initial residual = 0.12326919, Final residual = 0.0053640339, No Iterations 1
DILUPBiCGStab:  Solving for Uz, Initial residual = 0.13188395, Final residual = 0.0057110587, No Iterations 1
DILUPBiCGStab:  Solving for h, Initial residual = 0.056090356, Final residual = 0.0028123752, No Iterations 1
Min/max T:263.23052 476.54032
GAMG:  Solving for p_rgh, Initial residual = 0.274799, Final residual = 0.0013957067, No Iterations 4
time step continuity errors : sum local = 82.156401, global = 54.609689, cumulative = -468.30465
Min/max rho:1000 1000

Solving for fluid region topAir
DILUPBiCGStab:  Solving for Ux, Initial residual = 0.053367528, Final residual = 8.9315552e-05, No Iterations 1
DILUPBiCGStab:  Solving for Uy, Initial residual = 0.13342929, Final residual = 0.00027718675, No Iterations 1
DILUPBiCGStab:  Solving for Uz, Initial residual = 0.03807651, Final residual = 6.3137873e-05, No Iterations 1
DILUPBiCGStab:  Solving for h, Initial residual = 0.047560186, Final residual = 0.00051530671, No Iterations 1
Min/max T:297.21323 337.48796
GAMG:  Solving for p_rgh, Initial residual = 0.12876578, Final residual = 0.00071112049, No Iterations 3
time step continuity errors : sum local = 0.00025558189, global = -0.00023182248, cumulative = -468.30488
Min/max rho:1.0299227 1.1694852

Solving for solid region heater
DICPCG:  Solving for h, Initial residual = 0.0096269161, Final residual = 0.00041719391, No Iterations 1
Min/max T:303.11353 500

Solving for solid region leftSolid
DICPCG:  Solving for h, Initial residual = 0.016018201, Final residual = 0.00056020646, No Iterations 1
Min/max T:298.96758 301.50957

Solving for solid region rightSolid
DICPCG:  Solving for h, Initial residual = 0.042711041, Final residual = 0.0030976346, No Iterations 1
Min/max T:297.06218 322.73195

energyCoupling: 1/10

Solving for fluid region bottomWater
DILUPBiCGStab:  Solving for h, Initial residual = 0.065834801, Final residual = 0.0032154318, No Iterations 1
Min/max T:269.08348 476.9388

Solving for fluid region topAir
DILUPBiCGStab:  Solving for h, Initial residual = 0.042747464, Final residual = 0.00044361185, No Iterations 1
Min/max T:297.16561 339.29771

Solving for solid region heater
DICPCG:  Solving for h, Initial residual = 0.0091073073, Final residual = 0.00040506705, No Iterations 1
Min/max T:303.54233 500

Solving for solid region leftSolid
DICPCG:  Solving for h, Initial residual = 0.012464512, Final residual = 0.00060582408, No Iterations 1
Min/max T:298.95237 301.46721

Solving for solid region rightSolid
DICPCG:  Solving for h, Initial residual = 0.039939268, Final residual = 0.0028727228, No Iterations 1
Min/max T:297.01709 324.03242

energyCoupling: 2/10

Solving for fluid region bottomWater
DILUPBiCGStab:  Solving for h, Initial residual = 0.060804361, Final residual = 0.0031222879, No Iterations 1
Min/max T:272.8002 477.29897

Solving for fluid region topAir
DILUPBiCGStab:  Solving for h, Initial residual = 0.038309653, Final residual = 0.00038769969, No Iterations 1
Min/max T:297.12752 341.0086

Solving for solid region heater
DICPCG:  Solving for h, Initial residual = 0.0086389899, Final residual = 0.00039292162, No Iterations 1
Min/max T:303.98341 500

Solving for solid region leftSolid
DICPCG:  Solving for h, Initial residual = 0.012065724, Final residual = 0.00068266262, No Iterations 1
Min/max T:298.94399 301.42114

Solving for solid region rightSolid
DICPCG:  Solving for h, Initial residual = 0.037575755, Final residual = 0.0026839603, No Iterations 1
Min/max T:296.98383 325.27699

energyCoupling: 3/10

Solving for fluid region bottomWater
DILUPBiCGStab:  Solving for h, Initial residual = 0.057767961, Final residual = 0.0031083654, No Iterations 1
Min/max T:274.95728 477.62659

Solving for fluid region topAir
DILUPBiCGStab:  Solving for h, Initial residual = 0.034482369, Final residual = 0.00034154837, No Iterations 1
Min/max T:297.10234 342.62726

Solving for solid region heater
DICPCG:  Solving for h, Initial residual = 0.0082160143, Final residual = 0.00038178234, No Iterations 1
Min/max T:304.43516 500

Solving for solid region leftSolid
DICPCG:  Solving for h, Initial residual = 0.014259595, Final residual = 0.0007808153, No Iterations 1
Min/max T:298.9418 301.37366

Solving for solid region rightSolid
DICPCG:  Solving for h, Initial residual = 0.035512307, Final residual = 0.0025202085, No Iterations 1
Min/max T:296.96477 326.46825

energyCoupling: 4/10

Solving for fluid region bottomWater
DILUPBiCGStab:  Solving for h, Initial residual = 0.055753417, Final residual = 0.0030947309, No Iterations 1
Min/max T:276.56333 477.92692

Solving for fluid region topAir
DILUPBiCGStab:  Solving for h, Initial residual = 0.031240564, Final residual = 0.00030391865, No Iterations 1
Min/max T:297.09075 344.16003

Solving for solid region heater
DICPCG:  Solving for h, Initial residual = 0.007832542, Final residual = 0.00037118071, No Iterations 1
Min/max T:304.89655 500

Solving for solid region leftSolid
DICPCG:  Solving for h, Initial residual = 0.017421504, Final residual = 0.00085912966, No Iterations 1
Min/max T:298.94455 301.32725

Solving for solid region rightSolid
DICPCG:  Solving for h, Initial residual = 0.033710769, Final residual = 0.0023769686, No Iterations 1
Min/max T:296.95968 327.60891

energyCoupling: 5/10

Solving for fluid region bottomWater
DILUPBiCGStab:  Solving for h, Initial residual = 0.054177368, Final residual = 0.0030555904, No Iterations 1
Min/max T:277.49339 478.20421

Solving for fluid region topAir
DILUPBiCGStab:  Solving for h, Initial residual = 0.02857941, Final residual = 0.00027335028, No Iterations 1
Min/max T:297.09181 345.61285

Solving for solid region heater
DICPCG:  Solving for h, Initial residual = 0.0074832112, Final residual = 0.0003610614, No Iterations 1
Min/max T:305.36692 500

Solving for solid region leftSolid
DICPCG:  Solving for h, Initial residual = 0.020578748, Final residual = 0.00094454535, No Iterations 1
Min/max T:298.94966 301.2839

Solving for solid region rightSolid
DICPCG:  Solving for h, Initial residual = 0.032126905, Final residual = 0.002248645, No Iterations 1
Min/max T:296.96701 328.70173

energyCoupling: 6/10

Solving for fluid region bottomWater
DILUPBiCGStab:  Solving for h, Initial residual = 0.052563448, Final residual = 0.0030141193, No Iterations 1
Min/max T:278.39896 478.46166

Solving for fluid region topAir
DILUPBiCGStab:  Solving for h, Initial residual = 0.026241465, Final residual = 0.00024773811, No Iterations 1
Min/max T:297.10211 346.99122

Solving for solid region heater
DICPCG:  Solving for h, Initial residual = 0.0071632569, Final residual = 0.00035164172, No Iterations 1
Min/max T:305.84577 500

Solving for solid region leftSolid
DICPCG:  Solving for h, Initial residual = 0.023224418, Final residual = 0.0010078815, No Iterations 1
Min/max T:298.95835 301.24388

Solving for solid region rightSolid
DICPCG:  Solving for h, Initial residual = 0.030696146, Final residual = 0.0021336154, No Iterations 1
Min/max T:296.98476 329.74945

energyCoupling: 7/10

Solving for fluid region bottomWater
DILUPBiCGStab:  Solving for h, Initial residual = 0.0507218, Final residual = 0.0029716804, No Iterations 1
Min/max T:279.27192 478.70158

Solving for fluid region topAir
DILUPBiCGStab:  Solving for h, Initial residual = 0.024159206, Final residual = 0.00022550882, No Iterations 1
Min/max T:297.10675 348.30017

Solving for solid region heater
DICPCG:  Solving for h, Initial residual = 0.0068684842, Final residual = 0.00034261528, No Iterations 1
Min/max T:306.33271 500

Solving for solid region leftSolid
DICPCG:  Solving for h, Initial residual = 0.025311419, Final residual = 0.0010432665, No Iterations 1
Min/max T:298.96961 301.20228

Solving for solid region rightSolid
DICPCG:  Solving for h, Initial residual = 0.029423858, Final residual = 0.0020308661, No Iterations 1
Min/max T:297.00702 330.75472

energyCoupling: 8/10

Solving for fluid region bottomWater
DILUPBiCGStab:  Solving for h, Initial residual = 0.048945049, Final residual = 0.002911271, No Iterations 1
Min/max T:280.09774 478.92568

Solving for fluid region topAir
DILUPBiCGStab:  Solving for h, Initial residual = 0.022304777, Final residual = 0.00020619973, No Iterations 1
Min/max T:297.12087 349.54433

Solving for solid region heater
DICPCG:  Solving for h, Initial residual = 0.0065952198, Final residual = 0.00033398296, No Iterations 1
Min/max T:306.82734 500

Solving for solid region leftSolid
DICPCG:  Solving for h, Initial residual = 0.026771428, Final residual = 0.0010537939, No Iterations 1
Min/max T:298.98062 301.15902

Solving for solid region rightSolid
DICPCG:  Solving for h, Initial residual = 0.028289779, Final residual = 0.0019364863, No Iterations 1
Min/max T:297.02249 331.7201

energyCoupling: 9/10

Solving for fluid region bottomWater
DILUPBiCGStab:  Solving for h, Initial residual = 0.047225138, Final residual = 0.0028082823, No Iterations 1
Min/max T:280.82833 479.13529

Solving for fluid region topAir
DILUPBiCGStab:  Solving for h, Initial residual = 0.020654003, Final residual = 0.00018929268, No Iterations 1
Min/max T:297.14355 350.72793

Solving for solid region heater
DICPCG:  Solving for h, Initial residual = 0.0063402816, Final residual = 0.00032561622, No Iterations 1
Min/max T:307.32919 500

Solving for solid region leftSolid
DICPCG:  Solving for h, Initial residual = 0.027666963, Final residual = 0.0010433365, No Iterations 1
Min/max T:298.97912 301.11394

Solving for solid region rightSolid
DICPCG:  Solving for h, Initial residual = 0.027265542, Final residual = 0.0018495545, No Iterations 1
Min/max T:297.04666 332.648

energyCoupling: 10/10

Solving for fluid region bottomWater
DILUPBiCGStab:  Solving for h, Initial residual = 0.045646703, Final residual = 0.002669847, No Iterations 1
Min/max T:281.20369 479.33147

Solving for fluid region topAir
DILUPBiCGStab:  Solving for h, Initial residual = 0.019185479, Final residual = 0.00017454712, No Iterations 1
Min/max T:297.17401 351.85481

Solving for solid region heater
DICPCG:  Solving for h, Initial residual = 0.0061009693, Final residual = 0.00031745214, No Iterations 1
Min/max T:307.83771 500

Solving for solid region leftSolid
DICPCG:  Solving for h, Initial residual = 0.02814599, Final residual = 0.0010129774, No Iterations 1
Min/max T:298.97743 301.06688

Solving for solid region rightSolid
DICPCG:  Solving for h, Initial residual = 0.026348861, Final residual = 0.001769091, No Iterations 1
Min/max T:297.07877 333.54071
ExecutionTime = 0.16 s  ClockTime = 31 s

Time = 12


Solving for fluid region bottomWater
DILUPBiCGStab:  Solving for Ux, Initial residual = 0.079542203, Final residual = 0.0034081073, No Iterations 1
DILUPBiCGStab:  Solving for Uy, Initial residual = 0.11924847, Final residual = 0.0060127091, No Iterations 1
DILUPBiCGStab:  Solving for Uz, Initial residual = 0.13249699, Final residual = 0.0058195933, No Iterations 1
DILUPBiCGStab:  Solving for h, Initial residual = 0.044148546, Final residual = 0.0025060473, No Iterations 1
Min/max T:281.60243 479.51519
GAMG:  Solving for p_rgh, Initial residual = 0.15718804, Final residual = 0.0011236936, No Iterations 3
time step continuity errors : sum local = 77.791524, global = -53.599509, cumulative = -521.90439
Min/max rho:1000 1000

Solving for fluid region topAir
DILUPBiCGStab:  Solving for Ux, Initial residual = 0.047337262, Final residual = 8.5032098e-05, No Iterations 1
DILUPBiCGStab:  Solving for Uy, Initial residual = 0.23782965, Final residual = 0.00029496251, No Iterations 1
DILUPBiCGStab:  Solving for Uz, Initial residual = 0.12857155, Final residual = 0.00014802053, No Iterations 1
DILUPBiCGStab:  Solving for h, Initial residual = 0.017879523, Final residual = 0.00016165467, No Iterations 1
Min/max T:297.2116 352.92845
GAMG:  Solving for p_rgh, Initial residual = 0.26435142, Final residual = 0.0022781397, No Iterations 2
time step continuity errors : sum local = 0.00094873864, global = 0.00038544941, cumulative = -521.904
Min/max rho:0.98486393 1.1694916

Solving for solid region heater
DICPCG:  Solving for h, Initial residual = 0.0058750578, Final residual = 0.00030961684, No Iterations 1
Min/max T:308.35219 500

Solving for solid region leftSolid
DICPCG:  Solving for h, Initial residual = 0.02833343, Final residual = 0.0009795175, No Iterations 1
Min/max T:298.97513 301.01769

Solving for solid region rightSolid
DICPCG:  Solving for h, Initial residual = 0.025530081, Final residual = 0.0016942292, No Iterations 1
Min/max T:297.11814 334.40031

energyCoupling: 1/10

Solving for fluid region bottomWater
DILUPBiCGStab:  Solving for h, Initial residual = 0.067124392, Final residual = 0.0034645529, No Iterations 1
Min/max T:281.82395 479.6873

Solving for fluid region topAir
DILUPBiCGStab:  Solving for h, Initial residual = 0.017437311, Final residual = 0.00014914917, No Iterations 1
Min/max T:297.25579 353.95201

Solving for solid region heater
DICPCG:  Solving for h, Initial residual = 0.0056887062, Final residual = 0.00030235977, No Iterations 1
Min/max T:308.8718 500

Solving for solid region leftSolid
DICPCG:  Solving for h, Initial residual = 0.026961017, Final residual = 0.00088600666, No Iterations 1
Min/max T:298.97475 300.96799

Solving for solid region rightSolid
DICPCG:  Solving for h, Initial residual = 0.024874529, Final residual = 0.0016289328, No Iterations 1
Min/max T:297.1587 335.22929

energyCoupling: 2/10

Solving for fluid region bottomWater
DILUPBiCGStab:  Solving for h, Initial residual = 0.059720576, Final residual = 0.0032281114, No Iterations 1
Min/max T:282.15602 479.87787

Solving for fluid region topAir
DILUPBiCGStab:  Solving for h, Initial residual = 0.016162871, Final residual = 0.00014122928, No Iterations 1
Min/max T:297.2984 354.92918

Solving for solid region heater
DICPCG:  Solving for h, Initial residual = 0.0055094665, Final residual = 0.00029610768, No Iterations 1
Min/max T:309.39767 500

Solving for solid region leftSolid
DICPCG:  Solving for h, Initial residual = 0.025408206, Final residual = 0.00078801507, No Iterations 1
Min/max T:298.97622 300.92123

Solving for solid region rightSolid
DICPCG:  Solving for h, Initial residual = 0.024322093, Final residual = 0.0015698718, No Iterations 1
Min/max T:297.19738 336.03176

energyCoupling: 3/10

Solving for fluid region bottomWater
DILUPBiCGStab:  Solving for h, Initial residual = 0.055938119, Final residual = 0.0030368374, No Iterations 1
Min/max T:282.49853 480.05208

Solving for fluid region topAir
DILUPBiCGStab:  Solving for h, Initial residual = 0.015145518, Final residual = 0.00013414507, No Iterations 1
Min/max T:297.34104 355.86303

Solving for solid region heater
DICPCG:  Solving for h, Initial residual = 0.005337655, Final residual = 0.000290219, No Iterations 1
Min/max T:309.9293 500

Solving for solid region leftSolid
DICPCG:  Solving for h, Initial residual = 0.023802542, Final residual = 0.0006959024, No Iterations 1
Min/max T:298.97831 300.8776

Solving for solid region rightSolid
DICPCG:  Solving for h, Initial residual = 0.023851849, Final residual = 0.0015166213, No Iterations 1
Min/max T:297.23769 336.80933

energyCoupling: 4/10

Solving for fluid region bottomWater
DILUPBiCGStab:  Solving for h, Initial residual = 0.053165911, Final residual = 0.0028569705, No Iterations 1
Min/max T:282.02372 480.2091

Solving for fluid region topAir
DILUPBiCGStab:  Solving for h, Initial residual = 0.014291398, Final residual = 0.00012666558, No Iterations 1
Min/max T:297.38852 356.7568

Solving for solid region heater
DICPCG:  Solving for h, Initial residual = 0.0051730881, Final residual = 0.00028455443, No Iterations 1
Min/max T:310.46586 500

Solving for solid region leftSolid
DICPCG:  Solving for h, Initial residual = 0.022225354, Final residual = 0.00061383006, No Iterations 1
Min/max T:298.97969 300.83664

Solving for solid region rightSolid
DICPCG:  Solving for h, Initial residual = 0.023444071, Final residual = 0.0014673965, No Iterations 1
Min/max T:297.28494 337.56331

energyCoupling: 5/10

Solving for fluid region bottomWater
DILUPBiCGStab:  Solving for h, Initial residual = 0.051055476, Final residual = 0.0026998487, No Iterations 1
Min/max T:281.75883 480.353

Solving for fluid region topAir
DILUPBiCGStab:  Solving for h, Initial residual = 0.013544626, Final residual = 0.00011910615, No Iterations 1
Min/max T:297.44429 357.61347

Solving for solid region heater
DICPCG:  Solving for h, Initial residual = 0.0050153321, Final residual = 0.00027906577, No Iterations 1
Min/max T:311.00636 500

Solving for solid region leftSolid
DICPCG:  Solving for h, Initial residual = 0.020745799, Final residual = 0.00054486183, No Iterations 1
Min/max T:298.97979 300.79809

Solving for solid region rightSolid
DICPCG:  Solving for h, Initial residual = 0.023085427, Final residual = 0.0014213041, No Iterations 1
Min/max T:297.34252 338.29493

energyCoupling: 6/10

Solving for fluid region bottomWater
DILUPBiCGStab:  Solving for h, Initial residual = 0.049394217, Final residual = 0.0025701527, No Iterations 1
Min/max T:281.75883 480.48641

Solving for fluid region topAir
DILUPBiCGStab:  Solving for h, Initial residual = 0.012876031, Final residual = 0.00011159713, No Iterations 1
Min/max T:297.51032 358.43566

Solving for solid region heater
DICPCG:  Solving for h, Initial residual = 0.0048639924, Final residual = 0.00027391896, No Iterations 1
Min/max T:311.54972 500

Solving for solid region leftSolid
DICPCG:  Solving for h, Initial residual = 0.019426937, Final residual = 0.00049294223, No Iterations 1
Min/max T:298.97986 300.76173

Solving for solid region rightSolid
DICPCG:  Solving for h, Initial residual = 0.022763979, Final residual = 0.0013776328, No Iterations 1
Min/max T:297.41202 339.00526

energyCoupling: 7/10

Solving for fluid region bottomWater
DILUPBiCGStab:  Solving for h, Initial residual = 0.047979224, Final residual = 0.0024602722, No Iterations 1
Min/max T:281.77744 480.61108

Solving for fluid region topAir
DILUPBiCGStab:  Solving for h, Initial residual = 0.012270126, Final residual = 0.00010457133, No Iterations 1
Min/max T:297.58749 359.22556

Solving for solid region heater
DICPCG:  Solving for h, Initial residual = 0.0047187981, Final residual = 0.00026945852, No Iterations 1
Min/max T:312.09479 500

Solving for solid region leftSolid
DICPCG:  Solving for h, Initial residual = 0.018305015, Final residual = 0.00045719987, No Iterations 1
Min/max T:298.97993 300.7274

Solving for solid region rightSolid
DICPCG:  Solving for h, Initial residual = 0.022471136, Final residual = 0.0013359566, No Iterations 1
Min/max T:297.49393 339.69524

energyCoupling: 8/10

Solving for fluid region bottomWater
DILUPBiCGStab:  Solving for h, Initial residual = 0.04684882, Final residual = 0.0023679443, No Iterations 1
Min/max T:281.98894 480.7283

Solving for fluid region topAir
DILUPBiCGStab:  Solving for h, Initial residual = 0.011719919, Final residual = 9.8242639e-05, No Iterations 1
Min/max T:297.67604 359.98507

Solving for solid region heater
DICPCG:  Solving for h, Initial residual = 0.0045795909, Final residual = 0.00026514926, No Iterations 1
Min/max T:312.64039 500

Solving for solid region leftSolid
DICPCG:  Solving for h, Initial residual = 0.017384765, Final residual = 0.00044336908, No Iterations 1
Min/max T:298.98005 300.69492

Solving for solid region rightSolid
DICPCG:  Solving for h, Initial residual = 0.022199266, Final residual = 0.0012959622, No Iterations 1
Min/max T:297.58808 340.3657

energyCoupling: 9/10

Solving for fluid region bottomWater
DILUPBiCGStab:  Solving for h, Initial residual = 0.045930371, Final residual = 0.0022895603, No Iterations 1
Min/max T:282.34169 480.839

Solving for fluid region topAir
DILUPBiCGStab:  Solving for h, Initial residual = 0.011219778, Final residual = 9.2664973e-05, No Iterations 1
Min/max T:297.7758 360.71587

Solving for solid region heater
DICPCG:  Solving for h, Initial residual = 0.004446282, Final residual = 0.00026082475, No Iterations 1
Min/max T:313.18536 500

Solving for solid region leftSolid
DICPCG:  Solving for h, Initial residual = 0.016651162, Final residual = 0.00043891231, No Iterations 1
Min/max T:298.98029 300.66413

Solving for solid region rightSolid
DICPCG:  Solving for h, Initial residual = 0.021942352, Final residual = 0.0012574609, No Iterations 1
Min/max T:297.69393 341.01735

energyCoupling: 10/10

Solving for fluid region bottomWater
DILUPBiCGStab:  Solving for h, Initial residual = 0.045206039, Final residual = 0.0022126918, No Iterations 1
Min/max T:282.80363 480.94393

Solving for fluid region topAir
DILUPBiCGStab:  Solving for h, Initial residual = 0.010764557, Final residual = 8.7704075e-05, No Iterations 1
Min/max T:297.88636 361.4195

Solving for solid region heater
DICPCG:  Solving for h, Initial residual = 0.0043188059, Final residual = 0.00025648753, No Iterations 1
Min/max T:313.72864 500

Solving for solid region leftSolid
DICPCG:  Solving for h, Initial residual = 0.016095479, Final residual = 0.00043512676, No Iterations 1
Min/max T:298.98067 300.6349

Solving for solid region rightSolid
DICPCG:  Solving for h, Initial residual = 0.021695327, Final residual = 0.0012203247, No Iterations 1
Min/max T:297.81077 341.65084
ExecutionTime = 0.18 s  ClockTime = 31 s

Time = 13


Solving for fluid region bottomWater
DILUPBiCGStab:  Solving for Ux, Initial residual = 0.07023634, Final residual = 0.0029253142, No Iterations 1
DILUPBiCGStab:  Solving for Uy, Initial residual = 0.10233112, Final residual = 0.0043280933, No Iterations 1
DILUPBiCGStab:  Solving for Uz, Initial residual = 0.12496493, Final residual = 0.00563974, No Iterations 1
DILUPBiCGStab:  Solving for h, Initial residual = 0.044686847, Final residual = 0.002153426, No Iterations 1
Min/max T:283.35202 481.04367
GAMG:  Solving for p_rgh, Initial residual = 0.15092398, Final residual = 0.00081817688, No Iterations 4
time step continuity errors : sum local = 47.072098, global = -32.676149, cumulative = -554.58015
Min/max rho:1000 1000

Solving for fluid region topAir
DILUPBiCGStab:  Solving for Ux, Initial residual = 0.040484051, Final residual = 6.9951054e-05, No Iterations 1
DILUPBiCGStab:  Solving for Uy, Initial residual = 0.25417893, Final residual = 0.00032437976, No Iterations 1
DILUPBiCGStab:  Solving for Uz, Initial residual = 0.10222502, Final residual = 0.00011194421, No Iterations 1
DILUPBiCGStab:  Solving for h, Initial residual = 0.010348227, Final residual = 8.3257966e-05, No Iterations 1
Min/max T:298.00718 362.09743
GAMG:  Solving for p_rgh, Initial residual = 0.25914884, Final residual = 0.0013068347, No Iterations 2
time step continuity errors : sum local = 0.00066703652, global = 0.00032084634, cumulative = -554.57983
Min/max rho:0.95992535 1.1663695

Solving for solid region heater
DICPCG:  Solving for h, Initial residual = 0.0041970869, Final residual = 0.00025227989, No Iterations 1
Min/max T:314.26922 500

Solving for solid region leftSolid
DICPCG:  Solving for h, Initial residual = 0.015683954, Final residual = 0.00042976016, No Iterations 1
Min/max T:298.98126 300.60712

Solving for solid region rightSolid
DICPCG:  Solving for h, Initial residual = 0.021454697, Final residual = 0.0011845021, No Iterations 1
Min/max T:297.93782 342.26675

energyCoupling: 1/10

Solving for fluid region bottomWater
DILUPBiCGStab:  Solving for h, Initial residual = 0.055398409, Final residual = 0.0027331999, No Iterations 1
Min/max T:283.96829 481.13869

Solving for fluid region topAir
DILUPBiCGStab:  Solving for h, Initial residual = 0.010960363, Final residual = 8.648398e-05, No Iterations 1
Min/max T:298.13764 362.75105

Solving for solid region heater
DICPCG:  Solving for h, Initial residual = 0.0040750074, Final residual = 0.00024794021, No Iterations 1
Min/max T:314.80626 500

Solving for solid region leftSolid
DICPCG:  Solving for h, Initial residual = 0.015757648, Final residual = 0.00047003774, No Iterations 1
Min/max T:298.98146 300.57946

Solving for solid region rightSolid
DICPCG:  Solving for h, Initial residual = 0.021174054, Final residual = 0.0011498127, No Iterations 1
Min/max T:298.07572 342.86555

energyCoupling: 2/10

Solving for fluid region bottomWater
DILUPBiCGStab:  Solving for h, Initial residual = 0.048991637, Final residual = 0.0024628901, No Iterations 1
Min/max T:285.95929 481.23039

Solving for fluid region topAir
DILUPBiCGStab:  Solving for h, Initial residual = 0.010229385, Final residual = 8.2148421e-05, No Iterations 1
Min/max T:298.27814 363.38136

Solving for solid region heater
DICPCG:  Solving for h, Initial residual = 0.0039591971, Final residual = 0.0002438034, No Iterations 1
Min/max T:315.33818 500

Solving for solid region leftSolid
DICPCG:  Solving for h, Initial residual = 0.015762501, Final residual = 0.00045182972, No Iterations 1
Min/max T:298.9799 300.55233

Solving for solid region rightSolid
DICPCG:  Solving for h, Initial residual = 0.020892917, Final residual = 0.0011153653, No Iterations 1
Min/max T:298.22267 343.44802

energyCoupling: 3/10

Solving for fluid region bottomWater
DILUPBiCGStab:  Solving for h, Initial residual = 0.045244648, Final residual = 0.0022891802, No Iterations 1
Min/max T:287.45459 481.31671

Solving for fluid region topAir
DILUPBiCGStab:  Solving for h, Initial residual = 0.0097133956, Final residual = 7.8878333e-05, No Iterations 1
Min/max T:298.42652 363.98936

Solving for solid region heater
DICPCG:  Solving for h, Initial residual = 0.0038497238, Final residual = 0.00023962061, No Iterations 1
Min/max T:315.86418 500

Solving for solid region leftSolid
DICPCG:  Solving for h, Initial residual = 0.015715372, Final residual = 0.00043259655, No Iterations 1
Min/max T:298.97567 300.52643

Solving for solid region rightSolid
DICPCG:  Solving for h, Initial residual = 0.020611321, Final residual = 0.0010823567, No Iterations 1
Min/max T:298.36554 344.01445

energyCoupling: 4/10

Solving for fluid region bottomWater
DILUPBiCGStab:  Solving for h, Initial residual = 0.042656049, Final residual = 0.002151925, No Iterations 1
Min/max T:288.60337 481.39877

Solving for fluid region topAir
DILUPBiCGStab:  Solving for h, Initial residual = 0.0092983511, Final residual = 7.5050117e-05, No Iterations 1
Min/max T:298.57474 364.5762

Solving for solid region heater
DICPCG:  Solving for h, Initial residual = 0.0037463135, Final residual = 0.00023544215, No Iterations 1
Min/max T:316.38383 500

Solving for solid region leftSolid
DICPCG:  Solving for h, Initial residual = 0.015637971, Final residual = 0.00041779, No Iterations 1
Min/max T:298.97165 300.50331

Solving for solid region rightSolid
DICPCG:  Solving for h, Initial residual = 0.020330972, Final residual = 0.0010505763, No Iterations 1
Min/max T:298.51532 344.56526

energyCoupling: 5/10

Solving for fluid region bottomWater
DILUPBiCGStab:  Solving for h, Initial residual = 0.040691876, Final residual = 0.002051613, No Iterations 1
Min/max T:289.51981 481.47797

Solving for fluid region topAir
DILUPBiCGStab:  Solving for h, Initial residual = 0.0089295574, Final residual = 7.0880665e-05, No Iterations 1
Min/max T:298.72656 365.14306

Solving for solid region heater
DICPCG:  Solving for h, Initial residual = 0.0036485618, Final residual = 0.00023133015, No Iterations 1
Min/max T:316.89696 500

Solving for solid region leftSolid
DICPCG:  Solving for h, Initial residual = 0.015511641, Final residual = 0.00040457083, No Iterations 1
Min/max T:298.96803 300.48158

Solving for solid region rightSolid
DICPCG:  Solving for h, Initial residual = 0.020053726, Final residual = 0.0010201918, No Iterations 1
Min/max T:298.67134 345.10094

energyCoupling: 6/10

Solving for fluid region bottomWater
DILUPBiCGStab:  Solving for h, Initial residual = 0.039197642, Final residual = 0.0019645244, No Iterations 1
Min/max T:290.09681 481.55482

Solving for fluid region topAir
DILUPBiCGStab:  Solving for h, Initial residual = 0.0085845292, Final residual = 6.6775882e-05, No Iterations 1
Min/max T:298.88463 365.6911

Solving for solid region heater
DICPCG:  Solving for h, Initial residual = 0.0035560234, Final residual = 0.00022729081, No Iterations 1
Min/max T:317.40346 500

Solving for solid region leftSolid
DICPCG:  Solving for h, Initial residual = 0.015321369, Final residual = 0.00039179074, No Iterations 1
Min/max T:298.96395 300.46083

Solving for solid region rightSolid
DICPCG:  Solving for h, Initial residual = 0.019780658, Final residual = 0.00099126522, No Iterations 1
Min/max T:298.83306 345.62205

energyCoupling: 7/10

Solving for fluid region bottomWater
DILUPBiCGStab:  Solving for h, Initial residual = 0.038094887, Final residual = 0.0018905622, No Iterations 1
Min/max T:290.24187 481.6283

Solving for fluid region topAir
DILUPBiCGStab:  Solving for h, Initial residual = 0.0082567569, Final residual = 6.2912121e-05, No Iterations 1
Min/max T:298.97973 366.22144

Solving for solid region heater
DICPCG:  Solving for h, Initial residual = 0.003468251, Final residual = 0.00022332854, No Iterations 1
Min/max T:317.90328 500

Solving for solid region leftSolid
DICPCG:  Solving for h, Initial residual = 0.015071435, Final residual = 0.00037818189, No Iterations 1
Min/max T:298.95532 300.44115

Solving for solid region rightSolid
DICPCG:  Solving for h, Initial residual = 0.01951201, Final residual = 0.00096374201, No Iterations 1
Min/max T:299.00009 346.12915

energyCoupling: 8/10

Solving for fluid region bottomWater
DILUPBiCGStab:  Solving for h, Initial residual = 0.037274428, Final residual = 0.0018233063, No Iterations 1
Min/max T:290.37768 481.6987

Solving for fluid region topAir
DILUPBiCGStab:  Solving for h, Initial residual = 0.0079462977, Final residual = 5.9522172e-05, No Iterations 1
Min/max T:298.97192 366.73514

Solving for solid region heater
DICPCG:  Solving for h, Initial residual = 0.0033848164, Final residual = 0.00021944367, No Iterations 1
Min/max T:318.39641 500

Solving for solid region leftSolid
DICPCG:  Solving for h, Initial residual = 0.014740883, Final residual = 0.00036328454, No Iterations 1
Min/max T:298.94841 300.42262

Solving for solid region rightSolid
DICPCG:  Solving for h, Initial residual = 0.019248547, Final residual = 0.00093756045, No Iterations 1
Min/max T:299.17209 346.62285

energyCoupling: 9/10

Solving for fluid region bottomWater
DILUPBiCGStab:  Solving for h, Initial residual = 0.036794954, Final residual = 0.0017725844, No Iterations 1
Min/max T:290.50665 481.76622

Solving for fluid region topAir
DILUPBiCGStab:  Solving for h, Initial residual = 0.0076541372, Final residual = 5.6528684e-05, No Iterations 1
Min/max T:298.96577 367.23315

Solving for solid region heater
DICPCG:  Solving for h, Initial residual = 0.0033053228, Final residual = 0.00021563462, No Iterations 1
Min/max T:318.88281 500

Solving for solid region leftSolid
DICPCG:  Solving for h, Initial residual = 0.014313417, Final residual = 0.0003469797, No Iterations 1
Min/max T:298.94336 300.40534

Solving for solid region rightSolid
DICPCG:  Solving for h, Initial residual = 0.018991312, Final residual = 0.00091266113, No Iterations 1
Min/max T:299.34881 347.10375

energyCoupling: 10/10

Solving for fluid region bottomWater
DILUPBiCGStab:  Solving for h, Initial residual = 0.03648782, Final residual = 0.0017320145, No Iterations 1
Min/max T:290.63084 481.83106

Solving for fluid region topAir
DILUPBiCGStab:  Solving for h, Initial residual = 0.0073806979, Final residual = 5.38852e-05, No Iterations 1
Min/max T:298.96139 367.71634

Solving for solid region heater
DICPCG:  Solving for h, Initial residual = 0.0032294122, Final residual = 0.00021190059, No Iterations 1
Min/max T:319.36248 500

Solving for solid region leftSolid
DICPCG:  Solving for h, Initial residual = 0.013825902, Final residual = 0.00033082141, No Iterations 1
Min/max T:298.94022 300.38938

Solving for solid region rightSolid
DICPCG:  Solving for h, Initial residual = 0.018740111, Final residual = 0.00088892654, No Iterations 1
Min/max T:299.52998 347.57246
ExecutionTime = 0.2 s  ClockTime = 31 s

externalCoupled: writing data to "/home/inabower/OpenFOAM/tutorials-v1712/heatTransfer/chtMultiRegionSimpleFoam/externalCoupledHeater/comms/heater_topAir/coupleGroup/T.out"
externalCoupled: removing lock file
externalCoupled: waiting for lock file to appear "/home/inabower/OpenFOAM/tutorials-v1712/heatTransfer/chtMultiRegionSimpleFoam/externalCoupledHeater/comms/OpenFOAM.lock"
externalCoupled: wait time = 1
externalCoupled: wait time = 2
externalCoupled: wait time = 3
externalCoupled: wait time = 4
externalCoupled: wait time = 5
externalCoupled: wait time = 6
externalCoupled: wait time = 7
externalCoupled: wait time = 8
externalCoupled: wait time = 9
externalCoupled: wait time = 10
externalCoupled: found lock file "/home/inabower/OpenFOAM/tutorials-v1712/heatTransfer/chtMultiRegionSimpleFoam/externalCoupledHeater/comms/OpenFOAM.lock"
externalCoupled: removing data files written by master
externalCoupled: reading data from "/home/inabower/OpenFOAM/tutorials-v1712/heatTransfer/chtMultiRegionSimpleFoam/externalCoupledHeater/comms/heater_topAir/coupleGroup/T.in"
Time = 14


Solving for fluid region bottomWater
DILUPBiCGStab:  Solving for Ux, Initial residual = 0.062968286, Final residual = 0.0026825419, No Iterations 1
DILUPBiCGStab:  Solving for Uy, Initial residual = 0.096984816, Final residual = 0.0041147263, No Iterations 1
DILUPBiCGStab:  Solving for Uz, Initial residual = 0.11860089, Final residual = 0.0053155009, No Iterations 1
DILUPBiCGStab:  Solving for h, Initial residual = 0.036255171, Final residual = 0.0016990343, No Iterations 1
Min/max T:290.75176 481.89336
GAMG:  Solving for p_rgh, Initial residual = 0.25569105, Final residual = 0.001280778, No Iterations 3
time step continuity errors : sum local = 33.791653, global = 0.90634484, cumulative = -553.67348
Min/max rho:1000 1000

Solving for fluid region topAir
DILUPBiCGStab:  Solving for Ux, Initial residual = 0.037568992, Final residual = 6.100306e-05, No Iterations 1
DILUPBiCGStab:  Solving for Uy, Initial residual = 0.24237145, Final residual = 0.00027220874, No Iterations 1
DILUPBiCGStab:  Solving for Uz, Initial residual = 0.10857029, Final residual = 0.00015267819, No Iterations 1
DILUPBiCGStab:  Solving for h, Initial residual = 0.0071254798, Final residual = 5.1529115e-05, No Iterations 1
Min/max T:298.95884 368.18547
GAMG:  Solving for p_rgh, Initial residual = 0.18582957, Final residual = 0.0004386262, No Iterations 2
time step continuity errors : sum local = 0.00027908344, global = 6.9884508e-05, cumulative = -553.67341
Min/max rho:0.94405273 1.1626567

Solving for solid region heater
DICPCG:  Solving for h, Initial residual = 0.0031567693, Final residual = 0.0002082422, No Iterations 1
Min/max T:319.83539 500

Solving for solid region leftSolid
DICPCG:  Solving for h, Initial residual = 0.013292358, Final residual = 0.00032052506, No Iterations 1
Min/max T:298.93904 300.37476

Solving for solid region rightSolid
DICPCG:  Solving for h, Initial residual = 0.018494635, Final residual = 0.00086631842, No Iterations 1
Min/max T:299.7154 348.0296

energyCoupling: 1/10

Solving for fluid region bottomWater
DILUPBiCGStab:  Solving for h, Initial residual = 0.053150948, Final residual = 0.0024569112, No Iterations 1
Min/max T:292.78526 481.9533

Solving for fluid region topAir
DILUPBiCGStab:  Solving for h, Initial residual = 0.0081070737, Final residual = 6.0264477e-05, No Iterations 1
Min/max T:298.95815 368.64124

Solving for solid region heater
DICPCG:  Solving for h, Initial residual = 0.0030682261, Final residual = 0.00020394226, No Iterations 1
Min/max T:320.30154 500

Solving for solid region leftSolid
DICPCG:  Solving for h, Initial residual = 0.013663771, Final residual = 0.00035687579, No Iterations 1
Min/max T:298.93967 300.35841

Solving for solid region rightSolid
DICPCG:  Solving for h, Initial residual = 0.018209658, Final residual = 0.00084057135, No Iterations 1
Min/max T:299.90538 348.47509

energyCoupling: 2/10

Solving for fluid region bottomWater
DILUPBiCGStab:  Solving for h, Initial residual = 0.045482622, Final residual = 0.0020872035, No Iterations 1
Min/max T:293.24553 482.01458

Solving for fluid region topAir
DILUPBiCGStab:  Solving for h, Initial residual = 0.0073901402, Final residual = 5.6271018e-05, No Iterations 1
Min/max T:298.95914 369.08349

Solving for solid region heater
DICPCG:  Solving for h, Initial residual = 0.0029847786, Final residual = 0.00019951211, No Iterations 1
Min/max T:320.75959 500

Solving for solid region leftSolid
DICPCG:  Solving for h, Initial residual = 0.014013032, Final residual = 0.00035265187, No Iterations 1
Min/max T:298.94202 300.34084

Solving for solid region rightSolid
DICPCG:  Solving for h, Initial residual = 0.017917997, Final residual = 0.00081625182, No Iterations 1
Min/max T:300.0977 348.90726

energyCoupling: 3/10

Solving for fluid region bottomWater
DILUPBiCGStab:  Solving for h, Initial residual = 0.041167091, Final residual = 0.0018535278, No Iterations 1
Min/max T:291.86649 482.0709

Solving for fluid region topAir
DILUPBiCGStab:  Solving for h, Initial residual = 0.0069314217, Final residual = 5.3311046e-05, No Iterations 1
Min/max T:298.96177 369.51243

Solving for solid region heater
DICPCG:  Solving for h, Initial residual = 0.0029066416, Final residual = 0.00019514444, No Iterations 1
Min/max T:321.20905 500

Solving for solid region leftSolid
DICPCG:  Solving for h, Initial residual = 0.014347851, Final residual = 0.00034856175, No Iterations 1
Min/max T:298.94601 300.32298

Solving for solid region rightSolid
DICPCG:  Solving for h, Initial residual = 0.017623071, Final residual = 0.00079325175, No Iterations 1
Min/max T:300.29306 349.32702

energyCoupling: 4/10

Solving for fluid region bottomWater
DILUPBiCGStab:  Solving for h, Initial residual = 0.038013942, Final residual = 0.0017076121, No Iterations 1
Min/max T:291.0052 482.12389

Solving for fluid region topAir
DILUPBiCGStab:  Solving for h, Initial residual = 0.0065910294, Final residual = 5.0141195e-05, No Iterations 1
Min/max T:298.96595 369.92837

Solving for solid region heater
DICPCG:  Solving for h, Initial residual = 0.002833367, Final residual = 0.00019088859, No Iterations 1
Min/max T:321.6498 500

Solving for solid region leftSolid
DICPCG:  Solving for h, Initial residual = 0.014705782, Final residual = 0.00036347003, No Iterations 1
Min/max T:298.95153 300.30491

Solving for solid region rightSolid
DICPCG:  Solving for h, Initial residual = 0.017328864, Final residual = 0.00077146837, No Iterations 1
Min/max T:300.49215 349.73527

energyCoupling: 5/10

Solving for fluid region bottomWater
DILUPBiCGStab:  Solving for h, Initial residual = 0.035349611, Final residual = 0.0016036782, No Iterations 1
Min/max T:290.46531 482.17445

Solving for fluid region topAir
DILUPBiCGStab:  Solving for h, Initial residual = 0.0063042646, Final residual = 4.6823634e-05, No Iterations 1
Min/max T:298.97154 370.33172

Solving for solid region heater
DICPCG:  Solving for h, Initial residual = 0.0027644521, Final residual = 0.00018680169, No Iterations 1
Min/max T:322.08196 500

Solving for solid region leftSolid
DICPCG:  Solving for h, Initial residual = 0.015078898, Final residual = 0.00038914925, No Iterations 1
Min/max T:298.95842 300.2867

Solving for solid region rightSolid
DICPCG:  Solving for h, Initial residual = 0.017038057, Final residual = 0.00075101852, No Iterations 1
Min/max T:300.69433 350.13283

energyCoupling: 6/10

Solving for fluid region bottomWater
DILUPBiCGStab:  Solving for h, Initial residual = 0.033020599, Final residual = 0.0015153509, No Iterations 1
Min/max T:290.12859 482.22308

Solving for fluid region topAir
DILUPBiCGStab:  Solving for h, Initial residual = 0.0060459249, Final residual = 4.3843029e-05, No Iterations 1
Min/max T:298.97839 370.723

Solving for solid region heater
DICPCG:  Solving for h, Initial residual = 0.0026994273, Final residual = 0.00018288928, No Iterations 1
Min/max T:322.50573 500

Solving for solid region leftSolid
DICPCG:  Solving for h, Initial residual = 0.015496751, Final residual = 0.00041351941, No Iterations 1
Min/max T:298.96651 300.26846

Solving for solid region rightSolid
DICPCG:  Solving for h, Initial residual = 0.0167527, Final residual = 0.00073221641, No Iterations 1
Min/max T:300.89906 350.52044

energyCoupling: 7/10

Solving for fluid region bottomWater
DILUPBiCGStab:  Solving for h, Initial residual = 0.030881857, Final residual = 0.0014470255, No Iterations 1
Min/max T:289.92395 482.27002

Solving for fluid region topAir
DILUPBiCGStab:  Solving for h, Initial residual = 0.0058077842, Final residual = 4.1270661e-05, No Iterations 1
Min/max T:298.98637 371.10278

Solving for solid region heater
DICPCG:  Solving for h, Initial residual = 0.0026378754, Final residual = 0.00017915813, No Iterations 1
Min/max T:322.92138 500

Solving for solid region leftSolid
DICPCG:  Solving for h, Initial residual = 0.015873461, Final residual = 0.00043534672, No Iterations 1
Min/max T:298.97567 300.25029

Solving for solid region rightSolid
DICPCG:  Solving for h, Initial residual = 0.016474527, Final residual = 0.00071459767, No Iterations 1
Min/max T:301.10584 350.89877

energyCoupling: 8/10

Solving for fluid region bottomWater
DILUPBiCGStab:  Solving for h, Initial residual = 0.028920624, Final residual = 0.0014013963, No Iterations 1
Min/max T:289.80799 482.31541

Solving for fluid region topAir
DILUPBiCGStab:  Solving for h, Initial residual = 0.0055879122, Final residual = 3.9108479e-05, No Iterations 1
Min/max T:298.99533 371.47167

Solving for solid region heater
DICPCG:  Solving for h, Initial residual = 0.0025794348, Final residual = 0.00017561259, No Iterations 1
Min/max T:323.32919 500

Solving for solid region leftSolid
DICPCG:  Solving for h, Initial residual = 0.016248773, Final residual = 0.00045615728, No Iterations 1
Min/max T:298.98576 300.2323

Solving for solid region rightSolid
DICPCG:  Solving for h, Initial residual = 0.016204626, Final residual = 0.00069783395, No Iterations 1
Min/max T:301.3142 351.2684

energyCoupling: 9/10

Solving for fluid region bottomWater
DILUPBiCGStab:  Solving for h, Initial residual = 0.027113776, Final residual = 0.0013579139, No Iterations 1
Min/max T:289.75354 482.35936

Solving for fluid region topAir
[...]
DILUPBiCGStab:  Solving for Uy, Initial residual = 0.0017589614, Final residual = 3.3716043e-06, No Iterations 1
DILUPBiCGStab:  Solving for Uz, Initial residual = 0.0040616027, Final residual = 4.813048e-06, No Iterations 1
DILUPBiCGStab:  Solving for h, Initial residual = 0.00050351803, Final residual = 9.4336319e-06, No Iterations 1
Min/max T:300 403.28137
GAMG:  Solving for p_rgh, Initial residual = 0.00084513401, Final residual = 4.3988071e-06, No Iterations 5
time step continuity errors : sum local = 8.1864393e-06, global = -7.7734102e-06, cumulative = -637.74121
Min/max rho:0.86189581 1.1586213

Solving for solid region heater
DICPCG:  Solving for h, Initial residual = 2.3317865e-05, Final residual = 1.7885996e-06, No Iterations 1
Min/max T:366.35667 500

Solving for solid region leftSolid
DICPCG:  Solving for h, Initial residual = 0.009164314, Final residual = 0.00018432047, No Iterations 1
Min/max T:300.46031 300.96191

Solving for solid region rightSolid
DICPCG:  Solving for h, Initial residual = 0.0002728095, Final residual = 8.801569e-06, No Iterations 1
Min/max T:348.61995 388.60673
ExecutionTime = 4.53 s  ClockTime = 1232 s

Time = 493


Solving for fluid region bottomWater
DILUPBiCGStab:  Solving for Ux, Initial residual = 3.326213e-16, Final residual = 3.326213e-16, No Iterations 0
DILUPBiCGStab:  Solving for Uy, Initial residual = 5.5069083e-16, Final residual = 5.5069083e-16, No Iterations 0
DILUPBiCGStab:  Solving for Uz, Initial residual = 1.6082688e-16, Final residual = 1.6082688e-16, No Iterations 0
DILUPBiCGStab:  Solving for h, Initial residual = 9.4715488e-06, Final residual = 1.5669636e-07, No Iterations 1
Min/max T:300 486.1575
GAMG:  Solving for p_rgh, Initial residual = 9.0325089e-08, Final residual = 9.0325089e-08, No Iterations 0
time step continuity errors : sum local = 1.1849235e-06, global = -6.7494026e-08, cumulative = -637.74121
Min/max rho:1000 1000

Solving for fluid region topAir
DILUPBiCGStab:  Solving for Ux, Initial residual = 0.001182641, Final residual = 1.921597e-06, No Iterations 1
DILUPBiCGStab:  Solving for Uy, Initial residual = 0.0016565683, Final residual = 3.3770015e-06, No Iterations 1
DILUPBiCGStab:  Solving for Uz, Initial residual = 0.0047624778, Final residual = 5.8460305e-06, No Iterations 1
DILUPBiCGStab:  Solving for h, Initial residual = 0.00051263653, Final residual = 9.6225769e-06, No Iterations 1
Min/max T:300 403.2836
GAMG:  Solving for p_rgh, Initial residual = 0.00082142147, Final residual = 4.3746458e-06, No Iterations 5
time step continuity errors : sum local = 8.1650341e-06, global = -7.7550852e-06, cumulative = -637.74122
Min/max rho:0.86189105 1.1586213

Solving for solid region heater
DICPCG:  Solving for h, Initial residual = 2.3089355e-05, Final residual = 1.7710784e-06, No Iterations 1
Min/max T:366.35999 500

Solving for solid region leftSolid
DICPCG:  Solving for h, Initial residual = 0.009097386, Final residual = 0.00018297476, No Iterations 1
Min/max T:300.45905 300.96059

Solving for solid region rightSolid
DICPCG:  Solving for h, Initial residual = 0.00027029384, Final residual = 8.7242479e-06, No Iterations 1
Min/max T:348.62454 388.60948
ExecutionTime = 4.53 s  ClockTime = 1232 s

externalCoupled: writing data to "/home/inabower/OpenFOAM/tutorials-v1712/heatTransfer/chtMultiRegionSimpleFoam/externalCoupledHeater/comms/heater_topAir/coupleGroup/T.out"
externalCoupled: removing lock file
externalCoupled: waiting for lock file to appear "/home/inabower/OpenFOAM/tutorials-v1712/heatTransfer/chtMultiRegionSimpleFoam/externalCoupledHeater/comms/OpenFOAM.lock"
externalCoupled: wait time = 1
externalCoupled: wait time = 2
externalCoupled: wait time = 3
externalCoupled: wait time = 4
externalCoupled: wait time = 5
externalCoupled: wait time = 6
externalCoupled: wait time = 7
externalCoupled: wait time = 8
externalCoupled: wait time = 9
externalCoupled: wait time = 10
externalCoupled: found lock file "/home/inabower/OpenFOAM/tutorials-v1712/heatTransfer/chtMultiRegionSimpleFoam/externalCoupledHeater/comms/OpenFOAM.lock"
externalCoupled: removing data files written by master
externalCoupled: reading data from "/home/inabower/OpenFOAM/tutorials-v1712/heatTransfer/chtMultiRegionSimpleFoam/externalCoupledHeater/comms/heater_topAir/coupleGroup/T.in"
Time = 494


Solving for fluid region bottomWater
DILUPBiCGStab:  Solving for Ux, Initial residual = 3.2310615e-16, Final residual = 3.2310615e-16, No Iterations 0
DILUPBiCGStab:  Solving for Uy, Initial residual = 5.6174359e-16, Final residual = 5.6174359e-16, No Iterations 0
DILUPBiCGStab:  Solving for Uz, Initial residual = 1.5600662e-16, Final residual = 1.5600662e-16, No Iterations 0
DILUPBiCGStab:  Solving for h, Initial residual = 9.3818224e-06, Final residual = 1.5521121e-07, No Iterations 1
Min/max T:300 486.15772
GAMG:  Solving for p_rgh, Initial residual = 9.0325088e-08, Final residual = 9.0325088e-08, No Iterations 0
time step continuity errors : sum local = 1.1849235e-06, global = -6.7494025e-08, cumulative = -637.74122
Min/max rho:1000 1000

Solving for fluid region topAir
DILUPBiCGStab:  Solving for Ux, Initial residual = 0.0013008206, Final residual = 2.0910859e-06, No Iterations 1
DILUPBiCGStab:  Solving for Uy, Initial residual = 0.0015674981, Final residual = 3.4482182e-06, No Iterations 1
DILUPBiCGStab:  Solving for Uz, Initial residual = 0.0056558568, Final residual = 6.9112051e-06, No Iterations 1
DILUPBiCGStab:  Solving for h, Initial residual = 0.00081123607, Final residual = 1.4441758e-05, No Iterations 1
Min/max T:300 403.2858
GAMG:  Solving for p_rgh, Initial residual = 0.00095944748, Final residual = 5.2102324e-06, No Iterations 5
time step continuity errors : sum local = 9.7328156e-06, global = -9.2370904e-06, cumulative = -637.74123
Min/max rho:0.86188634 1.1586213

Solving for solid region heater
DICPCG:  Solving for h, Initial residual = 2.2863047e-05, Final residual = 1.7537285e-06, No Iterations 1
Min/max T:366.36328 500

Solving for solid region leftSolid
DICPCG:  Solving for h, Initial residual = 0.0090309176, Final residual = 0.00018163792, No Iterations 1
Min/max T:300.45781 300.95928

Solving for solid region rightSolid
DICPCG:  Solving for h, Initial residual = 0.00026726038, Final residual = 8.6466315e-06, No Iterations 1
Min/max T:348.62909 388.61221
ExecutionTime = 4.53 s  ClockTime = 1242 s

Time = 495


Solving for fluid region bottomWater
DILUPBiCGStab:  Solving for Ux, Initial residual = 3.2754483e-16, Final residual = 3.2754483e-16, No Iterations 0
DILUPBiCGStab:  Solving for Uy, Initial residual = 5.4221721e-16, Final residual = 5.4221721e-16, No Iterations 0
DILUPBiCGStab:  Solving for Uz, Initial residual = 1.5549285e-16, Final residual = 1.5549285e-16, No Iterations 0
DILUPBiCGStab:  Solving for h, Initial residual = 9.2907472e-06, Final residual = 1.5371647e-07, No Iterations 1
Min/max T:300 486.15793
GAMG:  Solving for p_rgh, Initial residual = 9.0325089e-08, Final residual = 9.0325089e-08, No Iterations 0
time step continuity errors : sum local = 1.1849235e-06, global = -6.7494025e-08, cumulative = -637.74123
Min/max rho:1000 1000

Solving for fluid region topAir
DILUPBiCGStab:  Solving for Ux, Initial residual = 0.0024107054, Final residual = 4.4235827e-06, No Iterations 1
DILUPBiCGStab:  Solving for Uy, Initial residual = 0.0014447197, Final residual = 3.4609283e-06, No Iterations 1
DILUPBiCGStab:  Solving for Uz, Initial residual = 0.0062472404, Final residual = 8.067634e-06, No Iterations 1
DILUPBiCGStab:  Solving for h, Initial residual = 0.00066057958, Final residual = 1.3412386e-05, No Iterations 1
Min/max T:300 403.28798
GAMG:  Solving for p_rgh, Initial residual = 0.0088595595, Final residual = 5.7432494e-05, No Iterations 3
time step continuity errors : sum local = 0.00010851328, global = -5.9280021e-05, cumulative = -637.74129
Min/max rho:0.86188168 1.1586213

Solving for solid region heater
DICPCG:  Solving for h, Initial residual = 2.263862e-05, Final residual = 1.7364759e-06, No Iterations 1
Min/max T:366.36654 500

Solving for solid region leftSolid
DICPCG:  Solving for h, Initial residual = 0.0089649224, Final residual = 0.00018031086, No Iterations 1
Min/max T:300.45657 300.95798

Solving for solid region rightSolid
DICPCG:  Solving for h, Initial residual = 0.00026445342, Final residual = 8.501585e-06, No Iterations 1
Min/max T:348.63278 388.61491
ExecutionTime = 4.54 s  ClockTime = 1242 s

Time = 496


Solving for fluid region bottomWater
DILUPBiCGStab:  Solving for Ux, Initial residual = 3.2795966e-16, Final residual = 3.2795966e-16, No Iterations 0
DILUPBiCGStab:  Solving for Uy, Initial residual = 5.5116579e-16, Final residual = 5.5116579e-16, No Iterations 0
DILUPBiCGStab:  Solving for Uz, Initial residual = 1.5379246e-16, Final residual = 1.5379246e-16, No Iterations 0
DILUPBiCGStab:  Solving for h, Initial residual = 9.2004283e-06, Final residual = 1.5223295e-07, No Iterations 1
Min/max T:300 486.15815
GAMG:  Solving for p_rgh, Initial residual = 9.0325089e-08, Final residual = 9.0325089e-08, No Iterations 0
time step continuity errors : sum local = 1.1849235e-06, global = -6.7494026e-08, cumulative = -637.74129
Min/max rho:1000 1000

Solving for fluid region topAir
DILUPBiCGStab:  Solving for Ux, Initial residual = 0.002909435, Final residual = 5.7241306e-06, No Iterations 1
DILUPBiCGStab:  Solving for Uy, Initial residual = 0.0035998076, Final residual = 5.0774415e-06, No Iterations 1
DILUPBiCGStab:  Solving for Uz, Initial residual = 0.011725518, Final residual = 2.0705361e-05, No Iterations 1
DILUPBiCGStab:  Solving for h, Initial residual = 0.0013840621, Final residual = 1.7647321e-05, No Iterations 1
Min/max T:300 403.29014
GAMG:  Solving for p_rgh, Initial residual = 0.0043422643, Final residual = 2.484851e-05, No Iterations 4
time step continuity errors : sum local = 4.6523034e-05, global = -1.3311955e-05, cumulative = -637.7413
Min/max rho:0.86187706 1.1586213

Solving for solid region heater
DICPCG:  Solving for h, Initial residual = 2.2417168e-05, Final residual = 1.7195064e-06, No Iterations 1
Min/max T:366.36977 500

Solving for solid region leftSolid
DICPCG:  Solving for h, Initial residual = 0.008899389, Final residual = 0.00017899239, No Iterations 1
Min/max T:300.45534 300.95669

Solving for solid region rightSolid
DICPCG:  Solving for h, Initial residual = 0.00026177167, Final residual = 8.2903442e-06, No Iterations 1
Min/max T:348.63645 388.61759
ExecutionTime = 4.55 s  ClockTime = 1242 s

Time = 497


Solving for fluid region bottomWater
DILUPBiCGStab:  Solving for Ux, Initial residual = 3.2629515e-16, Final residual = 3.2629515e-16, No Iterations 0
DILUPBiCGStab:  Solving for Uy, Initial residual = 5.5632581e-16, Final residual = 5.5632581e-16, No Iterations 0
DILUPBiCGStab:  Solving for Uz, Initial residual = 1.5460601e-16, Final residual = 1.5460601e-16, No Iterations 0
DILUPBiCGStab:  Solving for h, Initial residual = 9.1113794e-06, Final residual = 1.5077409e-07, No Iterations 1
Min/max T:300 486.15836
GAMG:  Solving for p_rgh, Initial residual = 9.0325089e-08, Final residual = 9.0325089e-08, No Iterations 0
time step continuity errors : sum local = 1.1849235e-06, global = -6.7494025e-08, cumulative = -637.7413
Min/max rho:1000 1000

Solving for fluid region topAir
DILUPBiCGStab:  Solving for Ux, Initial residual = 0.0048056485, Final residual = 9.9021778e-06, No Iterations 1
DILUPBiCGStab:  Solving for Uy, Initial residual = 0.0047238216, Final residual = 5.0157246e-06, No Iterations 1
DILUPBiCGStab:  Solving for Uz, Initial residual = 0.017141788, Final residual = 2.8018083e-05, No Iterations 1
DILUPBiCGStab:  Solving for h, Initial residual = 0.0011804489, Final residual = 1.9577222e-05, No Iterations 1
Min/max T:300 403.29228
GAMG:  Solving for p_rgh, Initial residual = 0.014836675, Final residual = 5.2483909e-05, No Iterations 3
time step continuity errors : sum local = 9.8117121e-05, global = 4.7875108e-05, cumulative = -637.74125
Min/max rho:0.86187249 1.1586213

Solving for solid region heater
DICPCG:  Solving for h, Initial residual = 2.219836e-05, Final residual = 1.7029064e-06, No Iterations 1
Min/max T:366.37296 500

Solving for solid region leftSolid
DICPCG:  Solving for h, Initial residual = 0.0088343281, Final residual = 0.00017768469, No Iterations 1
Min/max T:300.45412 300.95541

Solving for solid region rightSolid
DICPCG:  Solving for h, Initial residual = 0.00025888777, Final residual = 8.2377129e-06, No Iterations 1
Min/max T:348.64113 388.62024
ExecutionTime = 4.55 s  ClockTime = 1242 s

externalCoupled: writing data to "/home/inabower/OpenFOAM/tutorials-v1712/heatTransfer/chtMultiRegionSimpleFoam/externalCoupledHeater/comms/heater_topAir/coupleGroup/T.out"
externalCoupled: removing lock file
externalCoupled: waiting for lock file to appear "/home/inabower/OpenFOAM/tutorials-v1712/heatTransfer/chtMultiRegionSimpleFoam/externalCoupledHeater/comms/OpenFOAM.lock"
externalCoupled: wait time = 1
externalCoupled: wait time = 2
externalCoupled: wait time = 3
externalCoupled: wait time = 4
externalCoupled: wait time = 5
externalCoupled: wait time = 6
externalCoupled: wait time = 7
externalCoupled: wait time = 8
externalCoupled: wait time = 9
externalCoupled: wait time = 10
externalCoupled: found lock file "/home/inabower/OpenFOAM/tutorials-v1712/heatTransfer/chtMultiRegionSimpleFoam/externalCoupledHeater/comms/OpenFOAM.lock"
externalCoupled: removing data files written by master
externalCoupled: reading data from "/home/inabower/OpenFOAM/tutorials-v1712/heatTransfer/chtMultiRegionSimpleFoam/externalCoupledHeater/comms/heater_topAir/coupleGroup/T.in"
Time = 498


Solving for fluid region bottomWater
DILUPBiCGStab:  Solving for Ux, Initial residual = 3.218124e-16, Final residual = 3.218124e-16, No Iterations 0
DILUPBiCGStab:  Solving for Uy, Initial residual = 5.552433e-16, Final residual = 5.552433e-16, No Iterations 0
DILUPBiCGStab:  Solving for Uz, Initial residual = 1.5942205e-16, Final residual = 1.5942205e-16, No Iterations 0
DILUPBiCGStab:  Solving for h, Initial residual = 9.0222137e-06, Final residual = 1.4931875e-07, No Iterations 1
Min/max T:300 486.15857
GAMG:  Solving for p_rgh, Initial residual = 9.0325089e-08, Final residual = 9.0325089e-08, No Iterations 0
time step continuity errors : sum local = 1.1849235e-06, global = -6.7494025e-08, cumulative = -637.74125
Min/max rho:1000 1000

Solving for fluid region topAir
DILUPBiCGStab:  Solving for Ux, Initial residual = 0.0033413267, Final residual = 6.1441923e-06, No Iterations 1
DILUPBiCGStab:  Solving for Uy, Initial residual = 0.0044079973, Final residual = 1.0287244e-05, No Iterations 1
DILUPBiCGStab:  Solving for Uz, Initial residual = 0.0093399017, Final residual = 1.5522213e-05, No Iterations 1
DILUPBiCGStab:  Solving for h, Initial residual = 0.001270157, Final residual = 2.0676085e-05, No Iterations 1
Min/max T:300 403.2944
GAMG:  Solving for p_rgh, Initial residual = 0.0080468382, Final residual = 3.5045113e-05, No Iterations 4
time step continuity errors : sum local = 6.527216e-05, global = 5.3296653e-05, cumulative = -637.7412
Min/max rho:0.86186796 1.1586213

Solving for solid region heater
DICPCG:  Solving for h, Initial residual = 2.1980344e-05, Final residual = 1.6861904e-06, No Iterations 1
Min/max T:366.37612 500

Solving for solid region leftSolid
DICPCG:  Solving for h, Initial residual = 0.008769733, Final residual = 0.00017638704, No Iterations 1
Min/max T:300.45291 300.95413

Solving for solid region rightSolid
DICPCG:  Solving for h, Initial residual = 0.00025665699, Final residual = 8.2764946e-06, No Iterations 1
Min/max T:348.64555 388.62286
ExecutionTime = 4.56 s  ClockTime = 1252 s

Time = 499


Solving for fluid region bottomWater
DILUPBiCGStab:  Solving for Ux, Initial residual = 3.2768483e-16, Final residual = 3.2768483e-16, No Iterations 0
DILUPBiCGStab:  Solving for Uy, Initial residual = 5.548416e-16, Final residual = 5.548416e-16, No Iterations 0
DILUPBiCGStab:  Solving for Uz, Initial residual = 1.5731035e-16, Final residual = 1.5731035e-16, No Iterations 0
DILUPBiCGStab:  Solving for h, Initial residual = 8.9358464e-06, Final residual = 1.4788463e-07, No Iterations 1
Min/max T:300 486.15878
GAMG:  Solving for p_rgh, Initial residual = 9.0325089e-08, Final residual = 9.0325089e-08, No Iterations 0
time step continuity errors : sum local = 1.1849235e-06, global = -6.7494025e-08, cumulative = -637.7412
Min/max rho:1000 1000

Solving for fluid region topAir
DILUPBiCGStab:  Solving for Ux, Initial residual = 0.0039867852, Final residual = 7.7015133e-06, No Iterations 1
DILUPBiCGStab:  Solving for Uy, Initial residual = 0.0048907166, Final residual = 1.4087888e-05, No Iterations 1
DILUPBiCGStab:  Solving for Uz, Initial residual = 0.014225408, Final residual = 2.4593875e-05, No Iterations 1
DILUPBiCGStab:  Solving for h, Initial residual = 0.00098078987, Final residual = 2.5802633e-05, No Iterations 1
Min/max T:300 403.2965
GAMG:  Solving for p_rgh, Initial residual = 0.0085347856, Final residual = 3.4516968e-05, No Iterations 3
time step continuity errors : sum local = 6.3533611e-05, global = 1.3301637e-05, cumulative = -637.74119
Min/max rho:0.86186348 1.1586213

Solving for solid region heater
DICPCG:  Solving for h, Initial residual = 2.1763516e-05, Final residual = 1.6693386e-06, No Iterations 1
Min/max T:366.37926 500

Solving for solid region leftSolid
DICPCG:  Solving for h, Initial residual = 0.0087055981, Final residual = 0.00017509753, No Iterations 1
Min/max T:300.45171 300.95287

Solving for solid region rightSolid
DICPCG:  Solving for h, Initial residual = 0.00025407861, Final residual = 8.187691e-06, No Iterations 1
Min/max T:348.64985 388.62546
ExecutionTime = 4.57 s  ClockTime = 1252 s

Time = 500


Solving for fluid region bottomWater
DILUPBiCGStab:  Solving for Ux, Initial residual = 3.3122644e-16, Final residual = 3.3122644e-16, No Iterations 0
DILUPBiCGStab:  Solving for Uy, Initial residual = 5.4676824e-16, Final residual = 5.4676824e-16, No Iterations 0
DILUPBiCGStab:  Solving for Uz, Initial residual = 1.6142154e-16, Final residual = 1.6142154e-16, No Iterations 0
DILUPBiCGStab:  Solving for h, Initial residual = 8.8495017e-06, Final residual = 1.4645634e-07, No Iterations 1
Min/max T:300 486.15898
GAMG:  Solving for p_rgh, Initial residual = 9.0325088e-08, Final residual = 9.0325088e-08, No Iterations 0
time step continuity errors : sum local = 1.1849235e-06, global = -6.7494026e-08, cumulative = -637.74119
Min/max rho:1000 1000

Solving for fluid region topAir
DILUPBiCGStab:  Solving for Ux, Initial residual = 0.0018100326, Final residual = 2.9745702e-06, No Iterations 1
DILUPBiCGStab:  Solving for Uy, Initial residual = 0.0027191246, Final residual = 7.4261645e-06, No Iterations 1
DILUPBiCGStab:  Solving for Uz, Initial residual = 0.006608857, Final residual = 1.2510442e-05, No Iterations 1
DILUPBiCGStab:  Solving for h, Initial residual = 0.00063135443, Final residual = 1.4960139e-05, No Iterations 1
Min/max T:300 403.29857
GAMG:  Solving for p_rgh, Initial residual = 0.0052644461, Final residual = 4.1412996e-05, No Iterations 3
time step continuity errors : sum local = 7.6304057e-05, global = -8.6578293e-06, cumulative = -637.7412
Min/max rho:0.86185904 1.1586213

Solving for solid region heater
DICPCG:  Solving for h, Initial residual = 2.1549816e-05, Final residual = 1.6529656e-06, No Iterations 1
Min/max T:366.38235 500

Solving for solid region leftSolid
DICPCG:  Solving for h, Initial residual = 0.0086419156, Final residual = 0.00017381682, No Iterations 1
Min/max T:300.45052 300.95162

Solving for solid region rightSolid
DICPCG:  Solving for h, Initial residual = 0.00025156745, Final residual = 8.1000426e-06, No Iterations 1
Min/max T:348.65406 388.62803
ExecutionTime = 4.59 s  ClockTime = 1252 s

externalCoupled: removing data files written by master
externalCoupled: removing data files written by slave
externalCoupled: lock file status=done
End

