/*---------------------------------------------------------------------------*\
| =========                 |                                                 |
| \\      /  F ield         | OpenFOAM: The Open Source CFD Toolbox           |
|  \\    /   O peration     | Version:  v1712                                 |
|   \\  /    A nd           | Web:      www.OpenFOAM.com                      |
|    \\/     M anipulation  |                                                 |
\*---------------------------------------------------------------------------*/
Build  : v1712
Arch   : "LSB;label=32;scalar=64"
Exec   : driftFluxFoam
Date   : Jan 04 2018
Time   : 23:15:37
Host   : "inabower-PC"
PID    : 9280
I/O    : uncollated
Case   : /media/inabower/3C9455F89455B55C/inabower/tutorials-v1712/multiphase/driftFluxFoam/RAS/mixerVessel2D
nProcs : 1
trapFpe: Floating point exception trapping enabled (FOAM_SIGFPE).
fileModificationChecking : Monitoring run-time modified files using timeStampMaster (fileModificationSkew 10)
allowSystemOperations : Allowing user-supplied system call operations

// * * * * * * * * * * * * * * * * * * * * * * * * * * * * * * * * * * * * * //
Create time

Create mesh for time = 0


PIMPLE: Operating solver in PISO mode

Reading field p_rgh

Reading field U

Reading/calculating face flux field phi

Reading incompressibleTwoPhaseInteractingMixture

Selecting incompressible transport model BinghamPlastic
Selecting incompressible transport model Newtonian
Selecting relative velocity model simple
Selecting turbulence model type RAS
Selecting RAS turbulence model buoyantKEpsilon
buoyantKEpsilonCoeffs
{
    Cg              0.85;
    Cmu             0.09;
    C1              1.44;
    C2              1.92;
    C3              0;
    sigmak          1;
    sigmaEps        1.3;
}


Reading g

Reading hRef
Calculating field g.h

Creating MRF zone list from MRFProperties
    creating MRF zone: MRF1
No finite volume options present


Starting time loop

Courant Number mean: 0 max: 0
deltaT = 0.00120192
Time = 0.00120192

PIMPLE: iteration 1
smoothSolver:  Solving for alpha.sludge, Initial residual = 0.000463488, Final residual = 0.000274187, No Iterations 1000
Phase-1 volume fraction = 0.001  Min(alpha.sludge) = 0.001  Max(alpha.sludge) = 0.001
MULES: Correcting alpha.sludge
MULES: Correcting alpha.sludge
Phase-1 volume fraction = 0.001  Min(alpha.sludge) = 0.000999  Max(alpha.sludge) = 0.001001
DICPCG:  Solving for alpha.sludge, Initial residual = 0.189456, Final residual = 3.28527e-07, No Iterations 4
Phase-1 volume fraction = 0.001  Min(alpha.sludge) = 0.000999336  Max(alpha.sludge) = 0.00100066
GAMG:  Solving for p_rgh, Initial residual = 1, Final residual = 0.0329209, No Iterations 5
time step continuity errors : sum local = 7.13198e-05, global = -3.44155e-20, cumulative = -3.44155e-20
GAMG:  Solving for p_rgh, Initial residual = 0.551832, Final residual = 0.0169623, No Iterations 5
time step continuity errors : sum local = 5.64083e-05, global = 4.47534e-20, cumulative = 1.03379e-20
GAMG:  Solving for p_rgh, Initial residual = 0.307524, Final residual = 7.57867e-07, No Iterations 19
time step continuity errors : sum local = 1.11515e-09, global = -5.03145e-20, cumulative = -3.99766e-20
DILUPBiCGStab:  Solving for epsilon, Initial residual = 0.128834, Final residual = 7.74904e-07, No Iterations 5
DILUPBiCGStab:  Solving for k, Initial residual = 1, Final residual = 8.10605e-07, No Iterations 7
ExecutionTime = 0.17 s  ClockTime = 1 s

Courant Number mean: 0.0343296 max: 0.251504
deltaT = 0.00143814
Time = 0.00264006

PIMPLE: iteration 1
smoothSolver:  Solving for alpha.sludge, Initial residual = 0.0021174, Final residual = 5.03358e-08, No Iterations 2
Phase-1 volume fraction = 0.001  Min(alpha.sludge) = 0.000999336  Max(alpha.sludge) = 0.00100066
Applying the previous iteration correction flux
MULES: Correcting alpha.sludge
MULES: Correcting alpha.sludge
MULES: Correcting alpha.sludge
Phase-1 volume fraction = 0.001  Min(alpha.sludge) = 0.00099814  Max(alpha.sludge) = 0.00100186
DICPCG:  Solving for alpha.sludge, Initial residual = 0.0170092, Final residual = 7.16781e-09, No Iterations 3
Phase-1 volume fraction = 0.001  Min(alpha.sludge) = 0.000998243  Max(alpha.sludge) = 0.00100176
GAMG:  Solving for p_rgh, Initial residual = 0.829806, Final residual = 0.0321429, No Iterations 4
time step continuity errors : sum local = 0.000236333, global = 3.53946e-20, cumulative = -4.58197e-21
GAMG:  Solving for p_rgh, Initial residual = 0.27066, Final residual = 0.00987622, No Iterations 4
time step continuity errors : sum local = 1.43558e-05, global = 2.49232e-20, cumulative = 2.03412e-20
GAMG:  Solving for p_rgh, Initial residual = 0.066392, Final residual = 5.97332e-07, No Iterations 15
time step continuity errors : sum local = 6.36497e-10, global = -2.30606e-20, cumulative = -2.71937e-21
DILUPBiCGStab:  Solving for epsilon, Initial residual = 0.0148985, Final residual = 2.06085e-08, No Iterations 2
DILUPBiCGStab:  Solving for k, Initial residual = 0.0655664, Final residual = 4.2456e-07, No Iterations 2
ExecutionTime = 0.19 s  ClockTime = 1 s

Courant Number mean: 0.0409837 max: 0.295347
deltaT = 0.00172979
Time = 0.00436985

PIMPLE: iteration 1
smoothSolver:  Solving for alpha.sludge, Initial residual = 0.00212494, Final residual = 7.9804e-08, No Iterations 2
Phase-1 volume fraction = 0.001  Min(alpha.sludge) = 0.000998244  Max(alpha.sludge) = 0.00100176
Applying the previous iteration correction flux
MULES: Correcting alpha.sludge
MULES: Correcting alpha.sludge
MULES: Correcting alpha.sludge
Phase-1 volume fraction = 0.001  Min(alpha.sludge) = 0.000996806  Max(alpha.sludge) = 0.0010032
DICPCG:  Solving for alpha.sludge, Initial residual = 0.0121764, Final residual = 1.30138e-07, No Iterations 2
Phase-1 volume fraction = 0.001  Min(alpha.sludge) = 0.000996871  Max(alpha.sludge) = 0.00100313
GAMG:  Solving for p_rgh, Initial residual = 0.413834, Final residual = 0.00846472, No Iterations 3
time step continuity errors : sum local = 1.10029e-05, global = 8.56508e-20, cumulative = 8.29314e-20
GAMG:  Solving for p_rgh, Initial residual = 0.0466599, Final residual = 0.00170746, No Iterations 3
time step continuity errors : sum local = 1.52728e-06, global = -1.07253e-19, cumulative = -2.43214e-20
GAMG:  Solving for p_rgh, Initial residual = 0.00972359, Final residual = 7.3374e-07, No Iterations 14
time step continuity errors : sum local = 6.42728e-10, global = -5.54709e-21, cumulative = -2.98685e-20
DILUPBiCGStab:  Solving for epsilon, Initial residual = 0.00703427, Final residual = 8.95499e-07, No Iterations 1
DILUPBiCGStab:  Solving for k, Initial residual = 0.0584477, Final residual = 4.09939e-07, No Iterations 2
ExecutionTime = 0.21 s  ClockTime = 1 s

Courant Number mean: 0.0488903 max: 0.356931
deltaT = 0.00208161
Time = 0.00645146

PIMPLE: iteration 1
smoothSolver:  Solving for alpha.sludge, Initial residual = 0.00241117, Final residual = 1.79964e-07, No Iterations 2
Phase-1 volume fraction = 0.001  Min(alpha.sludge) = 0.000996873  Max(alpha.sludge) = 0.00100313
Applying the previous iteration correction flux
MULES: Correcting alpha.sludge
MULES: Correcting alpha.sludge
MULES: Correcting alpha.sludge
Phase-1 volume fraction = 0.001  Min(alpha.sludge) = 0.000995144  Max(alpha.sludge) = 0.00100487
DICPCG:  Solving for alpha.sludge, Initial residual = 0.0144463, Final residual = 2.46941e-07, No Iterations 2
Phase-1 volume fraction = 0.001  Min(alpha.sludge) = 0.000995257  Max(alpha.sludge) = 0.00100475
GAMG:  Solving for p_rgh, Initial residual = 0.145214, Final residual = 0.00720681, No Iterations 2
time step continuity errors : sum local = 8.23987e-06, global = -3.91099e-20, cumulative = -6.89783e-20
GAMG:  Solving for p_rgh, Initial residual = 0.034812, Final residual = 0.00116593, No Iterations 3
time step continuity errors : sum local = 1.19337e-06, global = -5.12985e-20, cumulative = -1.20277e-19
GAMG:  Solving for p_rgh, Initial residual = 0.0106875, Final residual = 6.17215e-07, No Iterations 15
time step continuity errors : sum local = 6.32696e-10, global = -5.61491e-20, cumulative = -1.76426e-19
DILUPBiCGStab:  Solving for epsilon, Initial residual = 0.00763878, Final residual = 4.38256e-08, No Iterations 2
DILUPBiCGStab:  Solving for k, Initial residual = 0.0635776, Final residual = 9.82895e-07, No Iterations 2
ExecutionTime = 0.23 s  ClockTime = 1 s

Courant Number mean: 0.058329 max: 0.430488
deltaT = 0.00248519
Time = 0.00893665

PIMPLE: iteration 1
smoothSolver:  Solving for alpha.sludge, Initial residual = 0.00271838, Final residual = 3.45204e-07, No Iterations 2
Phase-1 volume fraction = 0.001  Min(alpha.sludge) = 0.00099526  Max(alpha.sludge) = 0.00100475
Applying the previous iteration correction flux
MULES: Correcting alpha.sludge
MULES: Correcting alpha.sludge
MULES: Correcting alpha.sludge
Phase-1 volume fraction = 0.001  Min(alpha.sludge) = 0.000993197  Max(alpha.sludge) = 0.00100682
DICPCG:  Solving for alpha.sludge, Initial residual = 0.016744, Final residual = 4.70801e-07, No Iterations 2
Phase-1 volume fraction = 0.001  Min(alpha.sludge) = 0.000993374  Max(alpha.sludge) = 0.00100664
GAMG:  Solving for p_rgh, Initial residual = 0.117075, Final residual = 0.00399054, No Iterations 3
time step continuity errors : sum local = 5.52915e-06, global = 1.88552e-20, cumulative = -1.57571e-19
GAMG:  Solving for p_rgh, Initial residual = 0.0350921, Final residual = 0.00080194, No Iterations 4
time step continuity errors : sum local = 1.08258e-06, global = -2.41344e-20, cumulative = -1.81705e-19
GAMG:  Solving for p_rgh, Initial residual = 0.0101024, Final residual = 7.79664e-07, No Iterations 15
time step continuity errors : sum local = 1.04537e-09, global = 2.65593e-20, cumulative = -1.55146e-19
DILUPBiCGStab:  Solving for epsilon, Initial residual = 0.00876789, Final residual = 1.0295e-07, No Iterations 2
DILUPBiCGStab:  Solving for k, Initial residual = 0.0691803, Final residual = 1.2024e-07, No Iterations 2
ExecutionTime = 0.25 s  ClockTime = 1 s

Courant Number mean: 0.0690998 max: 0.512635
deltaT = 0.00297609
Time = 0.0119127

PIMPLE: iteration 1
smoothSolver:  Solving for alpha.sludge, Initial residual = 0.00310333, Final residual = 6.30513e-07, No Iterations 2
Phase-1 volume fraction = 0.001  Min(alpha.sludge) = 0.000993381  Max(alpha.sludge) = 0.00100664
Applying the previous iteration correction flux
MULES: Correcting alpha.sludge
MULES: Correcting alpha.sludge
MULES: Correcting alpha.sludge
Phase-1 volume fraction = 0.001  Min(alpha.sludge) = 0.000990912  Max(alpha.sludge) = 0.00100912
DICPCG:  Solving for alpha.sludge, Initial residual = 0.019337, Final residual = 9.31732e-07, No Iterations 2
Phase-1 volume fraction = 0.001  Min(alpha.sludge) = 0.00099117  Max(alpha.sludge) = 0.00100886
GAMG:  Solving for p_rgh, Initial residual = 0.109375, Final residual = 0.0047201, No Iterations 3
time step continuity errors : sum local = 8.45735e-06, global = 2.90835e-20, cumulative = -1.26062e-19
GAMG:  Solving for p_rgh, Initial residual = 0.0365037, Final residual = 0.00084489, No Iterations 4
time step continuity errors : sum local = 1.45406e-06, global = 1.71195e-19, cumulative = 4.51324e-20
GAMG:  Solving for p_rgh, Initial residual = 0.0114059, Final residual = 9.61993e-07, No Iterations 15
time step continuity errors : sum local = 1.65042e-09, global = -1.28241e-19, cumulative = -8.3109e-20
DILUPBiCGStab:  Solving for epsilon, Initial residual = 0.0112593, Final residual = 2.65329e-07, No Iterations 2
DILUPBiCGStab:  Solving for k, Initial residual = 0.0748018, Final residual = 3.27397e-07, No Iterations 2
ExecutionTime = 0.26 s  ClockTime = 1 s

Courant Number mean: 0.0821786 max: 0.608636
deltaT = 0.00345054
Time = 0.0153633

PIMPLE: iteration 1
smoothSolver:  Solving for alpha.sludge, Initial residual = 0.00351428, Final residual = 9.72186e-07, No Iterations 2
Phase-1 volume fraction = 0.001  Min(alpha.sludge) = 0.000991184  Max(alpha.sludge) = 0.00100884
Applying the previous iteration correction flux
MULES: Correcting alpha.sludge
MULES: Correcting alpha.sludge
MULES: Correcting alpha.sludge
Phase-1 volume fraction = 0.001  Min(alpha.sludge) = 0.000988323  Max(alpha.sludge) = 0.00101172
DICPCG:  Solving for alpha.sludge, Initial residual = 0.0214952, Final residual = 8.45477e-08, No Iterations 3
Phase-1 volume fraction = 0.001  Min(alpha.sludge) = 0.000988671  Max(alpha.sludge) = 0.00101137
GAMG:  Solving for p_rgh, Initial residual = 0.0940936, Final residual = 0.0022807, No Iterations 4
time step continuity errors : sum local = 4.9757e-06, global = 1.08509e-19, cumulative = 2.54001e-20
GAMG:  Solving for p_rgh, Initial residual = 0.0349151, Final residual = 0.00101231, No Iterations 4
time step continuity errors : sum local = 2.16679e-06, global = -9.58492e-20, cumulative = -7.04491e-20
GAMG:  Solving for p_rgh, Initial residual = 0.0115554, Final residual = 5.7292e-07, No Iterations 16
time step continuity errors : sum local = 1.22288e-09, global = -2.33234e-19, cumulative = -3.03683e-19
DILUPBiCGStab:  Solving for epsilon, Initial residual = 0.0144504, Final residual = 5.7707e-07, No Iterations 2
DILUPBiCGStab:  Solving for k, Initial residual = 0.076356, Final residual = 7.08554e-07, No Iterations 2
ExecutionTime = 0.28 s  ClockTime = 1 s

Courant Number mean: 0.0947437 max: 0.69589
deltaT = 0.00397689
Time = 0.0193402

PIMPLE: iteration 1
smoothSolver:  Solving for alpha.sludge, Initial residual = 0.00409895, Final residual = 4.55445e-08, No Iterations 3
Phase-1 volume fraction = 0.001  Min(alpha.sludge) = 0.000988696  Max(alpha.sludge) = 0.00101135
Applying the previous iteration correction flux
MULES: Correcting alpha.sludge
MULES: Correcting alpha.sludge
MULES: Correcting alpha.sludge
Phase-1 volume fraction = 0.001  Min(alpha.sludge) = 0.000985401  Max(alpha.sludge) = 0.00101467
DICPCG:  Solving for alpha.sludge, Initial residual = 0.0237263, Final residual = 1.75209e-07, No Iterations 3
Phase-1 volume fraction = 0.001  Min(alpha.sludge) = 0.000985854  Max(alpha.sludge) = 0.00101421
GAMG:  Solving for p_rgh, Initial residual = 0.0962826, Final residual = 0.00480649, No Iterations 3
time step continuity errors : sum local = 1.27484e-05, global = -1.19877e-19, cumulative = -4.2356e-19
GAMG:  Solving for p_rgh, Initial residual = 0.0354019, Final residual = 0.000870834, No Iterations 4
time step continuity errors : sum local = 2.24309e-06, global = -8.11262e-20, cumulative = -5.04686e-19
GAMG:  Solving for p_rgh, Initial residual = 0.0133667, Final residual = 6.48987e-07, No Iterations 16
time step continuity errors : sum local = 1.67065e-09, global = 7.7022e-20, cumulative = -4.27664e-19
DILUPBiCGStab:  Solving for epsilon, Initial residual = 0.0179226, Final residual = 7.62608e-08, No Iterations 2
DILUPBiCGStab:  Solving for k, Initial residual = 0.0758128, Final residual = 1.00615e-07, No Iterations 3
ExecutionTime = 0.29 s  ClockTime = 1 s

Courant Number mean: 0.108855 max: 0.78565
deltaT = 0.00452274
Time = 0.0238629

PIMPLE: iteration 1
smoothSolver:  Solving for alpha.sludge, Initial residual = 0.00481306, Final residual = 7.22652e-08, No Iterations 3
Phase-1 volume fraction = 0.001  Min(alpha.sludge) = 0.000985897  Max(alpha.sludge) = 0.00101417
Applying the previous iteration correction flux
MULES: Correcting alpha.sludge
MULES: Correcting alpha.sludge
MULES: Correcting alpha.sludge
Phase-1 volume fraction = 0.001  Min(alpha.sludge) = 0.000982152  Max(alpha.sludge) = 0.00101795
DICPCG:  Solving for alpha.sludge, Initial residual = 0.0257743, Final residual = 3.40432e-07, No Iterations 3
Phase-1 volume fraction = 0.001  Min(alpha.sludge) = 0.000982716  Max(alpha.sludge) = 0.00101738
GAMG:  Solving for p_rgh, Initial residual = 0.0877723, Final residual = 0.00394481, No Iterations 3
time step continuity errors : sum local = 1.23369e-05, global = 2.46157e-19, cumulative = -1.81507e-19
GAMG:  Solving for p_rgh, Initial residual = 0.0346932, Final residual = 0.00173412, No Iterations 3
time step continuity errors : sum local = 5.39078e-06, global = -2.50751e-21, cumulative = -1.84015e-19
GAMG:  Solving for p_rgh, Initial residual = 0.0145429, Final residual = 6.45894e-07, No Iterations 16
time step continuity errors : sum local = 1.98757e-09, global = -3.67315e-19, cumulative = -5.5133e-19
DILUPBiCGStab:  Solving for epsilon, Initial residual = 0.0219494, Final residual = 1.62064e-07, No Iterations 2
DILUPBiCGStab:  Solving for k, Initial residual = 0.0729003, Final residual = 1.91726e-07, No Iterations 3
ExecutionTime = 0.31 s  ClockTime = 1 s

Courant Number mean: 0.123579 max: 0.868492
deltaT = 0.00502527
Time = 0.0288882

PIMPLE: iteration 1
smoothSolver:  Solving for alpha.sludge, Initial residual = 0.00544206, Final residual = 9.46345e-08, No Iterations 3
Phase-1 volume fraction = 0.001  Min(alpha.sludge) = 0.000982786  Max(alpha.sludge) = 0.00101731
Applying the previous iteration correction flux
MULES: Correcting alpha.sludge
MULES: Correcting alpha.sludge
MULES: Correcting alpha.sludge
Phase-1 volume fraction = 0.001  Min(alpha.sludge) = 0.000978627  Max(alpha.sludge) = 0.00102152
DICPCG:  Solving for alpha.sludge, Initial residual = 0.0273703, Final residual = 5.86231e-07, No Iterations 3
Phase-1 volume fraction = 0.001  Min(alpha.sludge) = 0.000979297  Max(alpha.sludge) = 0.00102084
GAMG:  Solving for p_rgh, Initial residual = 0.073794, Final residual = 0.00172577, No Iterations 4
time step continuity errors : sum local = 6.21832e-06, global = -2.25115e-19, cumulative = -7.76445e-19
GAMG:  Solving for p_rgh, Initial residual = 0.0327143, Final residual = 0.00075267, No Iterations 4
time step continuity errors : sum local = 2.67685e-06, global = -4.64676e-20, cumulative = -8.22913e-19
GAMG:  Solving for p_rgh, Initial residual = 0.0125786, Final residual = 9.55601e-07, No Iterations 15
time step continuity errors : sum local = 3.37894e-09, global = -1.58782e-19, cumulative = -9.81695e-19
DILUPBiCGStab:  Solving for epsilon, Initial residual = 0.0252114, Final residual = 2.98993e-07, No Iterations 2
DILUPBiCGStab:  Solving for k, Initial residual = 0.0673887, Final residual = 3.06293e-07, No Iterations 3
ExecutionTime = 0.33 s  ClockTime = 1 s

Courant Number mean: 0.137312 max: 0.930491
deltaT = 0.00539297
Time = 0.0342812

PIMPLE: iteration 1
smoothSolver:  Solving for alpha.sludge, Initial residual = 0.00609666, Final residual = 9.91425e-08, No Iterations 3
Phase-1 volume fraction = 0.001  Min(alpha.sludge) = 0.000979404  Max(alpha.sludge) = 0.00102073
Applying the previous iteration correction flux
MULES: Correcting alpha.sludge
MULES: Correcting alpha.sludge
MULES: Correcting alpha.sludge
Phase-1 volume fraction = 0.001  Min(alpha.sludge) = 0.000974942  Max(alpha.sludge) = 0.00102526
DICPCG:  Solving for alpha.sludge, Initial residual = 0.028132, Final residual = 8.55018e-07, No Iterations 3
Phase-1 volume fraction = 0.001  Min(alpha.sludge) = 0.000975697  Max(alpha.sludge) = 0.00102449
GAMG:  Solving for p_rgh, Initial residual = 0.0665838, Final residual = 0.00152046, No Iterations 4
time step continuity errors : sum local = 6.0016e-06, global = -9.56428e-21, cumulative = -9.91259e-19
GAMG:  Solving for p_rgh, Initial residual = 0.0306321, Final residual = 0.000678838, No Iterations 4
time step continuity errors : sum local = 2.66177e-06, global = 2.46819e-20, cumulative = -9.66578e-19
GAMG:  Solving for p_rgh, Initial residual = 0.0121389, Final residual = 8.84924e-07, No Iterations 15
time step continuity errors : sum local = 3.4267e-09, global = -1.50419e-19, cumulative = -1.117e-18
DILUPBiCGStab:  Solving for epsilon, Initial residual = 0.027701, Final residual = 4.33448e-07, No Iterations 2
DILUPBiCGStab:  Solving for k, Initial residual = 0.0603656, Final residual = 3.64388e-07, No Iterations 3
ExecutionTime = 0.35 s  ClockTime = 1 s

Courant Number mean: 0.147642 max: 0.958247
deltaT = 0.00567681
Time = 0.039958

PIMPLE: iteration 1
smoothSolver:  Solving for alpha.sludge, Initial residual = 0.00651698, Final residual = 9.13371e-08, No Iterations 3
Phase-1 volume fraction = 0.001  Min(alpha.sludge) = 0.000975848  Max(alpha.sludge) = 0.00102434
Applying the previous iteration correction flux
MULES: Correcting alpha.sludge
MULES: Correcting alpha.sludge
MULES: Correcting alpha.sludge
Phase-1 volume fraction = 0.001  Min(alpha.sludge) = 0.000971151  Max(alpha.sludge) = 0.00102911
DICPCG:  Solving for alpha.sludge, Initial residual = 0.0284524, Final residual = 1.06472e-07, No Iterations 4
Phase-1 volume fraction = 0.001  Min(alpha.sludge) = 0.000971975  Max(alpha.sludge) = 0.00102827
GAMG:  Solving for p_rgh, Initial residual = 0.0705951, Final residual = 0.0033566, No Iterations 3
time step continuity errors : sum local = 1.39567e-05, global = 1.47178e-19, cumulative = -9.69819e-19
GAMG:  Solving for p_rgh, Initial residual = 0.0297735, Final residual = 0.00139894, No Iterations 3
time step continuity errors : sum local = 5.67848e-06, global = 3.81967e-20, cumulative = -9.31622e-19
GAMG:  Solving for p_rgh, Initial residual = 0.0133558, Final residual = 8.83389e-07, No Iterations 15
time step continuity errors : sum local = 3.57053e-09, global = 2.1834e-19, cumulative = -7.13282e-19
DILUPBiCGStab:  Solving for epsilon, Initial residual = 0.0297265, Final residual = 5.73822e-07, No Iterations 2
DILUPBiCGStab:  Solving for k, Initial residual = 0.0532856, Final residual = 3.60077e-07, No Iterations 3
ExecutionTime = 0.36 s  ClockTime = 1 s

Courant Number mean: 0.15582 max: 0.965118
deltaT = 0.0058345
Time = 0.0457925

PIMPLE: iteration 1
smoothSolver:  Solving for alpha.sludge, Initial residual = 0.00679313, Final residual = 7.2309e-08, No Iterations 3
Phase-1 volume fraction = 0.001  Min(alpha.sludge) = 0.000972179  Max(alpha.sludge) = 0.00102807
Applying the previous iteration correction flux
MULES: Correcting alpha.sludge
MULES: Correcting alpha.sludge
MULES: Correcting alpha.sludge
Phase-1 volume fraction = 0.001  Min(alpha.sludge) = 0.000967349  Max(alpha.sludge) = 0.00103299
DICPCG:  Solving for alpha.sludge, Initial residual = 0.0281504, Final residual = 1.30146e-07, No Iterations 4
Phase-1 volume fraction = 0.001  Min(alpha.sludge) = 0.000968214  Max(alpha.sludge) = 0.0010321
GAMG:  Solving for p_rgh, Initial residual = 0.0675992, Final residual = 0.00323063, No Iterations 3
time step continuity errors : sum local = 1.36878e-05, global = 1.41001e-20, cumulative = -6.99182e-19
GAMG:  Solving for p_rgh, Initial residual = 0.0282565, Final residual = 0.0013802, No Iterations 3
time step continuity errors : sum local = 5.7965e-06, global = 5.85703e-20, cumulative = -6.40612e-19
GAMG:  Solving for p_rgh, Initial residual = 0.0129561, Final residual = 8.05332e-07, No Iterations 15
time step continuity errors : sum local = 3.36159e-09, global = -9.96616e-20, cumulative = -7.40273e-19
DILUPBiCGStab:  Solving for epsilon, Initial residual = 0.0309742, Final residual = 6.50069e-07, No Iterations 2
DILUPBiCGStab:  Solving for k, Initial residual = 0.0464729, Final residual = 3.14625e-07, No Iterations 3
ExecutionTime = 0.38 s  ClockTime = 1 s

Courant Number mean: 0.160617 max: 0.947647
deltaT = 0.00618811
Time = 0.0519806

PIMPLE: iteration 1
smoothSolver:  Solving for alpha.sludge, Initial residual = 0.00739885, Final residual = 7.28528e-08, No Iterations 3
Phase-1 volume fraction = 0.001  Min(alpha.sludge) = 0.000968488  Max(alpha.sludge) = 0.00103182
Applying the previous iteration correction flux
MULES: Correcting alpha.sludge
MULES: Correcting alpha.sludge
MULES: Correcting alpha.sludge
Phase-1 volume fraction = 0.001  Min(alpha.sludge) = 0.000963361  Max(alpha.sludge) = 0.00103706
DICPCG:  Solving for alpha.sludge, Initial residual = 0.0289288, Final residual = 1.88187e-07, No Iterations 4
Phase-1 volume fraction = 0.001  Min(alpha.sludge) = 0.000964294  Max(alpha.sludge) = 0.0010361
GAMG:  Solving for p_rgh, Initial residual = 0.0545985, Final residual = 0.00250392, No Iterations 3
time step continuity errors : sum local = 1.15194e-05, global = -2.13078e-20, cumulative = -7.61581e-19
GAMG:  Solving for p_rgh, Initial residual = 0.0279775, Final residual = 0.00128643, No Iterations 3
time step continuity errors : sum local = 5.96111e-06, global = 4.2138e-19, cumulative = -3.40201e-19
GAMG:  Solving for p_rgh, Initial residual = 0.012325, Final residual = 6.83973e-07, No Iterations 15
time step continuity errors : sum local = 3.09706e-09, global = -3.04893e-19, cumulative = -6.45094e-19
DILUPBiCGStab:  Solving for epsilon, Initial residual = 0.0326319, Final residual = 8.6604e-07, No Iterations 2
DILUPBiCGStab:  Solving for k, Initial residual = 0.042054, Final residual = 3.37786e-07, No Iterations 3
ExecutionTime = 0.39 s  ClockTime = 1 s

Courant Number mean: 0.171076 max: 0.960037
deltaT = 0.00638772
Time = 0.0583683

PIMPLE: iteration 1
smoothSolver:  Solving for alpha.sludge, Initial residual = 0.00776891, Final residual = 7.35266e-08, No Iterations 3
Phase-1 volume fraction = 0.001  Min(alpha.sludge) = 0.000964642  Max(alpha.sludge) = 0.00103575
Applying the previous iteration correction flux
MULES: Correcting alpha.sludge
MULES: Correcting alpha.sludge
MULES: Correcting alpha.sludge
Phase-1 volume fraction = 0.001  Min(alpha.sludge) = 0.000959343  Max(alpha.sludge) = 0.00104117
DICPCG:  Solving for alpha.sludge, Initial residual = 0.0289872, Final residual = 2.33049e-07, No Iterations 4
Phase-1 volume fraction = 0.001  Min(alpha.sludge) = 0.000960304  Max(alpha.sludge) = 0.00104019
GAMG:  Solving for p_rgh, Initial residual = 0.0544877, Final residual = 0.0021582, No Iterations 3
time step continuity errors : sum local = 1.02666e-05, global = -2.03128e-19, cumulative = -8.48222e-19
GAMG:  Solving for p_rgh, Initial residual = 0.0261023, Final residual = 0.00110283, No Iterations 3
time step continuity errors : sum local = 5.25018e-06, global = -2.02032e-19, cumulative = -1.05025e-18
GAMG:  Solving for p_rgh, Initial residual = 0.0115277, Final residual = 8.80313e-07, No Iterations 14
time step continuity errors : sum local = 4.148e-09, global = 5.70409e-19, cumulative = -4.79845e-19
DILUPBiCGStab:  Solving for epsilon, Initial residual = 0.0334211, Final residual = 9.63665e-07, No Iterations 2
DILUPBiCGStab:  Solving for k, Initial residual = 0.0373944, Final residual = 2.98517e-07, No Iterations 3
ExecutionTime = 0.42 s  ClockTime = 1 s

Courant Number mean: 0.177274 max: 0.951425
deltaT = 0.00660799
Time = 0.0649763

PIMPLE: iteration 1
smoothSolver:  Solving for alpha.sludge, Initial residual = 0.00815842, Final residual = 7.5538e-08, No Iterations 3
Phase-1 volume fraction = 0.001  Min(alpha.sludge) = 0.000960737  Max(alpha.sludge) = 0.00103974
Applying the previous iteration correction flux
MULES: Correcting alpha.sludge
MULES: Correcting alpha.sludge
MULES: Correcting alpha.sludge
Phase-1 volume fraction = 0.001  Min(alpha.sludge) = 0.000955245  Max(alpha.sludge) = 0.00104538
DICPCG:  Solving for alpha.sludge, Initial residual = 0.029221, Final residual = 2.90271e-07, No Iterations 4
Phase-1 volume fraction = 0.001  Min(alpha.sludge) = 0.000956235  Max(alpha.sludge) = 0.00104436
GAMG:  Solving for p_rgh, Initial residual = 0.0488101, Final residual = 0.00200893, No Iterations 3
time step continuity errors : sum local = 9.95981e-06, global = -2.10749e-19, cumulative = -6.90594e-19
GAMG:  Solving for p_rgh, Initial residual = 0.0247494, Final residual = 0.0010117, No Iterations 3
time step continuity errors : sum local = 4.94387e-06, global = 2.82606e-19, cumulative = -4.07988e-19
GAMG:  Solving for p_rgh, Initial residual = 0.010966, Final residual = 7.30679e-07, No Iterations 14
time step continuity errors : sum local = 3.57843e-09, global = -1.24064e-19, cumulative = -5.32052e-19
DILUPBiCGStab:  Solving for epsilon, Initial residual = 0.0339458, Final residual = 9.41533e-08, No Iterations 3
DILUPBiCGStab:  Solving for k, Initial residual = 0.0336389, Final residual = 2.6917e-07, No Iterations 3
ExecutionTime = 0.43 s  ClockTime = 1 s

Courant Number mean: 0.184048 max: 0.971678
deltaT = 0.00685273
Time = 0.071829

PIMPLE: iteration 1
smoothSolver:  Solving for alpha.sludge, Initial residual = 0.00857537, Final residual = 8.17467e-08, No Iterations 3
Phase-1 volume fraction = 0.001  Min(alpha.sludge) = 0.000956764  Max(alpha.sludge) = 0.00104382
Applying the previous iteration correction flux
MULES: Correcting alpha.sludge
MULES: Correcting alpha.sludge
MULES: Correcting alpha.sludge
Phase-1 volume fraction = 0.001  Min(alpha.sludge) = 0.000951056  Max(alpha.sludge) = 0.0010497
DICPCG:  Solving for alpha.sludge, Initial residual = 0.0296004, Final residual = 3.64047e-07, No Iterations 4
Phase-1 volume fraction = 0.001  Min(alpha.sludge) = 0.000952069  Max(alpha.sludge) = 0.00104865
GAMG:  Solving for p_rgh, Initial residual = 0.0478652, Final residual = 0.00184456, No Iterations 3
time step continuity errors : sum local = 9.51892e-06, global = -1.83984e-19, cumulative = -7.16036e-19
GAMG:  Solving for p_rgh, Initial residual = 0.0234673, Final residual = 0.000920685, No Iterations 3
time step continuity errors : sum local = 4.57936e-06, global = 1.59797e-19, cumulative = -5.56239e-19
GAMG:  Solving for p_rgh, Initial residual = 0.0103858, Final residual = 5.93451e-07, No Iterations 14
time step continuity errors : sum local = 3.00863e-09, global = -2.05369e-19, cumulative = -7.61609e-19
DILUPBiCGStab:  Solving for epsilon, Initial residual = 0.0343027, Final residual = 1.04827e-07, No Iterations 3
DILUPBiCGStab:  Solving for k, Initial residual = 0.0306373, Final residual = 2.49813e-07, No Iterations 3
ExecutionTime = 0.45 s  ClockTime = 1 s

Courant Number mean: 0.191606 max: 0.995001
deltaT = 0.00685273
Time = 0.0786818

PIMPLE: iteration 1
smoothSolver:  Solving for alpha.sludge, Initial residual = 0.00869525, Final residual = 8.03601e-08, No Iterations 3
Phase-1 volume fraction = 0.001  Min(alpha.sludge) = 0.000952682  Max(alpha.sludge) = 0.00104802
Applying the previous iteration correction flux
MULES: Correcting alpha.sludge
MULES: Correcting alpha.sludge
MULES: Correcting alpha.sludge
Phase-1 volume fraction = 0.001  Min(alpha.sludge) = 0.000946956  Max(alpha.sludge) = 0.00105393
DICPCG:  Solving for alpha.sludge, Initial residual = 0.0288883, Final residual = 3.71557e-07, No Iterations 4
Phase-1 volume fraction = 0.001  Min(alpha.sludge) = 0.000947951  Max(alpha.sludge) = 0.0010529
GAMG:  Solving for p_rgh, Initial residual = 0.0481422, Final residual = 0.00177487, No Iterations 3
time step continuity errors : sum local = 9.02886e-06, global = 1.43038e-19, cumulative = -6.18571e-19
GAMG:  Solving for p_rgh, Initial residual = 0.0218129, Final residual = 0.000866325, No Iterations 3
time step continuity errors : sum local = 4.2678e-06, global = -9.28855e-20, cumulative = -7.11456e-19
GAMG:  Solving for p_rgh, Initial residual = 0.00975456, Final residual = 9.29139e-07, No Iterations 13
time step continuity errors : sum local = 4.65405e-09, global = 3.25386e-21, cumulative = -7.08202e-19
DILUPBiCGStab:  Solving for epsilon, Initial residual = 0.0330639, Final residual = 8.77842e-08, No Iterations 3
DILUPBiCGStab:  Solving for k, Initial residual = 0.0272204, Final residual = 1.98599e-07, No Iterations 3
ExecutionTime = 0.48 s  ClockTime = 1 s

Courant Number mean: 0.192116 max: 0.981243
deltaT = 0.00685273
Time = 0.0855345

PIMPLE: iteration 1
smoothSolver:  Solving for alpha.sludge, Initial residual = 0.00878427, Final residual = 8.03164e-08, No Iterations 3
Phase-1 volume fraction = 0.001  Min(alpha.sludge) = 0.000948647  Max(alpha.sludge) = 0.00105218
Applying the previous iteration correction flux
MULES: Correcting alpha.sludge
MULES: Correcting alpha.sludge
MULES: Correcting alpha.sludge
Phase-1 volume fraction = 0.001  Min(alpha.sludge) = 0.0009429  Max(alpha.sludge) = 0.00105813
DICPCG:  Solving for alpha.sludge, Initial residual = 0.0282705, Final residual = 3.75587e-07, No Iterations 4
Phase-1 volume fraction = 0.001  Min(alpha.sludge) = 0.00094388  Max(alpha.sludge) = 0.00105711
GAMG:  Solving for p_rgh, Initial residual = 0.0420598, Final residual = 0.00158666, No Iterations 3
time step continuity errors : sum local = 7.9983e-06, global = 7.403e-20, cumulative = -6.34172e-19
GAMG:  Solving for p_rgh, Initial residual = 0.0204315, Final residual = 0.000796361, No Iterations 3
time step continuity errors : sum local = 3.90224e-06, global = 2.43344e-19, cumulative = -3.90829e-19
GAMG:  Solving for p_rgh, Initial residual = 0.00918391, Final residual = 7.89688e-07, No Iterations 13
time step continuity errors : sum local = 3.92821e-09, global = -9.21614e-22, cumulative = -3.9175e-19
DILUPBiCGStab:  Solving for epsilon, Initial residual = 0.0314291, Final residual = 9.57726e-07, No Iterations 2
DILUPBiCGStab:  Solving for k, Initial residual = 0.0244567, Final residual = 1.49646e-07, No Iterations 3
ExecutionTime = 0.5 s  ClockTime = 1 s

Courant Number mean: 0.192552 max: 0.968323
deltaT = 0.00715067
Time = 0.0926852

PIMPLE: iteration 1
smoothSolver:  Solving for alpha.sludge, Initial residual = 0.00924833, Final residual = 1.01876e-07, No Iterations 3
Phase-1 volume fraction = 0.001  Min(alpha.sludge) = 0.000944693  Max(alpha.sludge) = 0.00105627
Applying the previous iteration correction flux
MULES: Correcting alpha.sludge
MULES: Correcting alpha.sludge
MULES: Correcting alpha.sludge
Phase-1 volume fraction = 0.001  Min(alpha.sludge) = 0.000938674  Max(alpha.sludge) = 0.00106252
DICPCG:  Solving for alpha.sludge, Initial residual = 0.028981, Final residual = 4.70973e-07, No Iterations 4
Phase-1 volume fraction = 0.001  Min(alpha.sludge) = 0.000939682  Max(alpha.sludge) = 0.00106147
GAMG:  Solving for p_rgh, Initial residual = 0.0373742, Final residual = 0.00146376, No Iterations 3
time step continuity errors : sum local = 7.84041e-06, global = -1.81346e-19, cumulative = -5.73096e-19
GAMG:  Solving for p_rgh, Initial residual = 0.019377, Final residual = 0.000710103, No Iterations 3
time step continuity errors : sum local = 3.69786e-06, global = 6.12338e-21, cumulative = -5.66973e-19
GAMG:  Solving for p_rgh, Initial residual = 0.00871119, Final residual = 6.18342e-07, No Iterations 13
time step continuity errors : sum local = 3.27221e-09, global = 7.53156e-20, cumulative = -4.91657e-19
DILUPBiCGStab:  Solving for epsilon, Initial residual = 0.0307039, Final residual = 8.19613e-08, No Iterations 3
DILUPBiCGStab:  Solving for k, Initial residual = 0.023119, Final residual = 1.57748e-07, No Iterations 3
ExecutionTime = 0.52 s  ClockTime = 1 s

Courant Number mean: 0.201299 max: 0.997137
deltaT = 0.00715067
Time = 0.0998358

PIMPLE: iteration 1
smoothSolver:  Solving for alpha.sludge, Initial residual = 0.00929551, Final residual = 1.04188e-07, No Iterations 3
Phase-1 volume fraction = 0.001  Min(alpha.sludge) = 0.000940582  Max(alpha.sludge) = 0.00106054
Applying the previous iteration correction flux
MULES: Correcting alpha.sludge
MULES: Correcting alpha.sludge
MULES: Correcting alpha.sludge
Phase-1 volume fraction = 0.001  Min(alpha.sludge) = 0.000934537  Max(alpha.sludge) = 0.00106683
DICPCG:  Solving for alpha.sludge, Initial residual = 0.0284183, Final residual = 4.66068e-07, No Iterations 4
Phase-1 volume fraction = 0.001  Min(alpha.sludge) = 0.000935523  Max(alpha.sludge) = 0.0010658
GAMG:  Solving for p_rgh, Initial residual = 0.0364882, Final residual = 0.00130702, No Iterations 3
time step continuity errors : sum local = 6.99042e-06, global = 1.46254e-19, cumulative = -3.45403e-19
GAMG:  Solving for p_rgh, Initial residual = 0.0169595, Final residual = 0.000625548, No Iterations 3
time step continuity errors : sum local = 3.27274e-06, global = 5.37483e-19, cumulative = 1.9208e-19
GAMG:  Solving for p_rgh, Initial residual = 0.00788835, Final residual = 9.87042e-07, No Iterations 12
time step continuity errors : sum local = 5.25883e-09, global = -6.84464e-20, cumulative = 1.23634e-19
DILUPBiCGStab:  Solving for epsilon, Initial residual = 0.0285549, Final residual = 8.87415e-07, No Iterations 2
DILUPBiCGStab:  Solving for k, Initial residual = 0.021146, Final residual = 1.22111e-07, No Iterations 3
ExecutionTime = 0.53 s  ClockTime = 1 s

Courant Number mean: 0.201545 max: 0.99116
deltaT = 0.00715067
Time = 0.106987

PIMPLE: iteration 1
smoothSolver:  Solving for alpha.sludge, Initial residual = 0.00928258, Final residual = 1.07239e-07, No Iterations 3
Phase-1 volume fraction = 0.001  Min(alpha.sludge) = 0.000936508  Max(alpha.sludge) = 0.00106478
Applying the previous iteration correction flux
MULES: Correcting alpha.sludge
MULES: Correcting alpha.sludge
MULES: Correcting alpha.sludge
Phase-1 volume fraction = 0.001  Min(alpha.sludge) = 0.000930433  Max(alpha.sludge) = 0.00107112
DICPCG:  Solving for alpha.sludge, Initial residual = 0.0279289, Final residual = 4.56656e-07, No Iterations 4
Phase-1 volume fraction = 0.001  Min(alpha.sludge) = 0.000931406  Max(alpha.sludge) = 0.0010701
GAMG:  Solving for p_rgh, Initial residual = 0.0325985, Final residual = 0.00119996, No Iterations 3
time step continuity errors : sum local = 6.46134e-06, global = 1.79481e-20, cumulative = 1.41582e-19
GAMG:  Solving for p_rgh, Initial residual = 0.0152699, Final residual = 0.000574682, No Iterations 3
time step continuity errors : sum local = 3.04706e-06, global = -3.64027e-19, cumulative = -2.22445e-19
GAMG:  Solving for p_rgh, Initial residual = 0.00728459, Final residual = 5.78935e-07, No Iterations 13
time step continuity errors : sum local = 3.09612e-09, global = 5.48258e-20, cumulative = -1.67619e-19
DILUPBiCGStab:  Solving for epsilon, Initial residual = 0.0264663, Final residual = 7.55166e-07, No Iterations 2
DILUPBiCGStab:  Solving for k, Initial residual = 0.0195467, Final residual = 9.87289e-08, No Iterations 3
ExecutionTime = 0.55 s  ClockTime = 1 s

Courant Number mean: 0.201792 max: 0.981578
deltaT = 0.00715067
Time = 0.114137

PIMPLE: iteration 1
smoothSolver:  Solving for alpha.sludge, Initial residual = 0.00926455, Final residual = 1.09387e-07, No Iterations 3
Phase-1 volume fraction = 0.001  Min(alpha.sludge) = 0.000932474  Max(alpha.sludge) = 0.00106898
Applying the previous iteration correction flux
MULES: Correcting alpha.sludge
MULES: Correcting alpha.sludge
MULES: Correcting alpha.sludge
Phase-1 volume fraction = 0.001  Min(alpha.sludge) = 0.000926368  Max(alpha.sludge) = 0.00107537
DICPCG:  Solving for alpha.sludge, Initial residual = 0.0274811, Final residual = 4.43653e-07, No Iterations 4
Phase-1 volume fraction = 0.001  Min(alpha.sludge) = 0.000927332  Max(alpha.sludge) = 0.00107436
GAMG:  Solving for p_rgh, Initial residual = 0.0314169, Final residual = 0.0011372, No Iterations 3
time step continuity errors : sum local = 6.16348e-06, global = -2.60822e-19, cumulative = -4.28441e-19
GAMG:  Solving for p_rgh, Initial residual = 0.0146242, Final residual = 0.000546796, No Iterations 3
time step continuity errors : sum local = 2.89319e-06, global = 1.52393e-19, cumulative = -2.76049e-19
GAMG:  Solving for p_rgh, Initial residual = 0.0067569, Final residual = 5.80418e-07, No Iterations 13
time step continuity errors : sum local = 3.111e-09, global = 8.31464e-20, cumulative = -1.92902e-19
DILUPBiCGStab:  Solving for epsilon, Initial residual = 0.0245137, Final residual = 6.49967e-07, No Iterations 2
DILUPBiCGStab:  Solving for k, Initial residual = 0.0181686, Final residual = 8.09726e-08, No Iterations 3
ExecutionTime = 0.58 s  ClockTime = 1 s

Courant Number mean: 0.201879 max: 0.968571
deltaT = 0.00754793
Time = 0.121685

PIMPLE: iteration 1
smoothSolver:  Solving for alpha.sludge, Initial residual = 0.00973821, Final residual = 1.48919e-07, No Iterations 3
Phase-1 volume fraction = 0.001  Min(alpha.sludge) = 0.000928546  Max(alpha.sludge) = 0.00107309
Applying the previous iteration correction flux
MULES: Correcting alpha.sludge
MULES: Correcting alpha.sludge
MULES: Correcting alpha.sludge
Phase-1 volume fraction = 0.001  Min(alpha.sludge) = 0.000922069  Max(alpha.sludge) = 0.00107989
DICPCG:  Solving for alpha.sludge, Initial residual = 0.0286802, Final residual = 5.72516e-07, No Iterations 4
Phase-1 volume fraction = 0.001  Min(alpha.sludge) = 0.000923084  Max(alpha.sludge) = 0.00107882
GAMG:  Solving for p_rgh, Initial residual = 0.0276517, Final residual = 0.00102677, No Iterations 3
time step continuity errors : sum local = 6.01494e-06, global = -3.37804e-19, cumulative = -5.30706e-19
GAMG:  Solving for p_rgh, Initial residual = 0.013541, Final residual = 0.000504301, No Iterations 3
time step continuity errors : sum local = 2.87399e-06, global = 2.6209e-20, cumulative = -5.04497e-19
GAMG:  Solving for p_rgh, Initial residual = 0.00654281, Final residual = 9.86146e-07, No Iterations 12
time step continuity errors : sum local = 5.66325e-09, global = 8.56008e-20, cumulative = -4.18896e-19
DILUPBiCGStab:  Solving for epsilon, Initial residual = 0.0238555, Final residual = 7.56069e-07, No Iterations 2
DILUPBiCGStab:  Solving for k, Initial residual = 0.0178273, Final residual = 9.41195e-08, No Iterations 3
ExecutionTime = 0.6 s  ClockTime = 1 s

Courant Number mean: 0.213189 max: 1.00814
deltaT = 0.00754793
Time = 0.129233

PIMPLE: iteration 1
smoothSolver:  Solving for alpha.sludge, Initial residual = 0.00965205, Final residual = 1.50066e-07, No Iterations 3
Phase-1 volume fraction = 0.001  Min(alpha.sludge) = 0.000924388  Max(alpha.sludge) = 0.00107746
Applying the previous iteration correction flux
MULES: Correcting alpha.sludge
MULES: Correcting alpha.sludge
MULES: Correcting alpha.sludge
Phase-1 volume fraction = 0.001  Min(alpha.sludge) = 0.000917874  Max(alpha.sludge) = 0.00108431
DICPCG:  Solving for alpha.sludge, Initial residual = 0.0282242, Final residual = 5.50577e-07, No Iterations 4
Phase-1 volume fraction = 0.001  Min(alpha.sludge) = 0.000918884  Max(alpha.sludge) = 0.00108324
GAMG:  Solving for p_rgh, Initial residual = 0.024863, Final residual = 0.000934086, No Iterations 3
time step continuity errors : sum local = 5.4531e-06, global = -1.05302e-19, cumulative = -5.24199e-19
GAMG:  Solving for p_rgh, Initial residual = 0.0123321, Final residual = 0.000481207, No Iterations 3
time step continuity errors : sum local = 2.73752e-06, global = -3.73033e-19, cumulative = -8.97231e-19
GAMG:  Solving for p_rgh, Initial residual = 0.00604086, Final residual = 9.85017e-07, No Iterations 12
time step continuity errors : sum local = 5.68121e-09, global = 1.40031e-19, cumulative = -7.572e-19
DILUPBiCGStab:  Solving for epsilon, Initial residual = 0.0220184, Final residual = 6.42609e-07, No Iterations 2
DILUPBiCGStab:  Solving for k, Initial residual = 0.0165995, Final residual = 7.88009e-08, No Iterations 3
ExecutionTime = 0.62 s  ClockTime = 1 s

Courant Number mean: 0.213279 max: 1.00136
deltaT = 0.00754793
Time = 0.136781

PIMPLE: iteration 1
smoothSolver:  Solving for alpha.sludge, Initial residual = 0.00953615, Final residual = 1.49661e-07, No Iterations 3
Phase-1 volume fraction = 0.001  Min(alpha.sludge) = 0.000920276  Max(alpha.sludge) = 0.00108178
Applying the previous iteration correction flux
MULES: Correcting alpha.sludge
MULES: Correcting alpha.sludge
MULES: Correcting alpha.sludge
Phase-1 volume fraction = 0.001  Min(alpha.sludge) = 0.000913725  Max(alpha.sludge) = 0.00108869
DICPCG:  Solving for alpha.sludge, Initial residual = 0.0277856, Final residual = 5.2851e-07, No Iterations 4
Phase-1 volume fraction = 0.001  Min(alpha.sludge) = 0.000914744  Max(alpha.sludge) = 0.00108761
GAMG:  Solving for p_rgh, Initial residual = 0.0245833, Final residual = 0.000852795, No Iterations 3
time step continuity errors : sum local = 4.97961e-06, global = 6.01966e-20, cumulative = -6.97004e-19
GAMG:  Solving for p_rgh, Initial residual = 0.0110552, Final residual = 0.000428197, No Iterations 3
time step continuity errors : sum local = 2.44715e-06, global = 5.17914e-24, cumulative = -6.96999e-19
GAMG:  Solving for p_rgh, Initial residual = 0.00560278, Final residual = 9.28293e-07, No Iterations 12
time step continuity errors : sum local = 5.33887e-09, global = 7.29689e-20, cumulative = -6.2403e-19
DILUPBiCGStab:  Solving for epsilon, Initial residual = 0.0203306, Final residual = 5.15417e-07, No Iterations 2
DILUPBiCGStab:  Solving for k, Initial residual = 0.0155113, Final residual = 8.69541e-07, No Iterations 2
ExecutionTime = 0.64 s  ClockTime = 1 s

Courant Number mean: 0.213279 max: 0.991492
deltaT = 0.00754793
Time = 0.144329

PIMPLE: iteration 1
smoothSolver:  Solving for alpha.sludge, Initial residual = 0.00938315, Final residual = 1.47555e-07, No Iterations 3
Phase-1 volume fraction = 0.001  Min(alpha.sludge) = 0.000916222  Max(alpha.sludge) = 0.00108606
Applying the previous iteration correction flux
MULES: Correcting alpha.sludge
MULES: Correcting alpha.sludge
MULES: Correcting alpha.sludge
Phase-1 volume fraction = 0.001  Min(alpha.sludge) = 0.000909636  Max(alpha.sludge) = 0.00109302
DICPCG:  Solving for alpha.sludge, Initial residual = 0.0273424, Final residual = 5.05985e-07, No Iterations 4
Phase-1 volume fraction = 0.001  Min(alpha.sludge) = 0.00091067  Max(alpha.sludge) = 0.00109192
GAMG:  Solving for p_rgh, Initial residual = 0.0213622, Final residual = 0.000796669, No Iterations 3
time step continuity errors : sum local = 4.65634e-06, global = 5.32419e-21, cumulative = -6.18705e-19
GAMG:  Solving for p_rgh, Initial residual = 0.0105289, Final residual = 0.000403525, No Iterations 3
time step continuity errors : sum local = 2.27613e-06, global = 4.63988e-19, cumulative = -1.54717e-19
GAMG:  Solving for p_rgh, Initial residual = 0.00528921, Final residual = 8.95573e-07, No Iterations 12
time step continuity errors : sum local = 5.13374e-09, global = 2.67166e-19, cumulative = 1.12449e-19
DILUPBiCGStab:  Solving for epsilon, Initial residual = 0.0188064, Final residual = 4.43141e-07, No Iterations 2
DILUPBiCGStab:  Solving for k, Initial residual = 0.014505, Final residual = 7.68247e-07, No Iterations 2
ExecutionTime = 0.66 s  ClockTime = 1 s

Courant Number mean: 0.213259 max: 0.978736
deltaT = 0.00754793
Time = 0.151877

PIMPLE: iteration 1
smoothSolver:  Solving for alpha.sludge, Initial residual = 0.00922409, Final residual = 1.43726e-07, No Iterations 3
Phase-1 volume fraction = 0.001  Min(alpha.sludge) = 0.000912233  Max(alpha.sludge) = 0.00109028
Applying the previous iteration correction flux
MULES: Correcting alpha.sludge
MULES: Correcting alpha.sludge
MULES: Correcting alpha.sludge
Phase-1 volume fraction = 0.001  Min(alpha.sludge) = 0.000905615  Max(alpha.sludge) = 0.00109729
DICPCG:  Solving for alpha.sludge, Initial residual = 0.0269042, Final residual = 4.83703e-07, No Iterations 4
Phase-1 volume fraction = 0.001  Min(alpha.sludge) = 0.000906671  Max(alpha.sludge) = 0.00109617
GAMG:  Solving for p_rgh, Initial residual = 0.0198298, Final residual = 0.000742316, No Iterations 3
time step continuity errors : sum local = 4.28637e-06, global = 4.26916e-19, cumulative = 5.39365e-19
GAMG:  Solving for p_rgh, Initial residual = 0.00955798, Final residual = 0.000364815, No Iterations 3
time step continuity errors : sum local = 2.0376e-06, global = -2.56885e-19, cumulative = 2.8248e-19
GAMG:  Solving for p_rgh, Initial residual = 0.00500861, Final residual = 8.75875e-07, No Iterations 12
time step continuity errors : sum local = 4.98101e-09, global = -1.05307e-19, cumulative = 1.77172e-19
DILUPBiCGStab:  Solving for epsilon, Initial residual = 0.0173988, Final residual = 3.71346e-07, No Iterations 2
DILUPBiCGStab:  Solving for k, Initial residual = 0.0135877, Final residual = 6.69011e-07, No Iterations 2
ExecutionTime = 0.68 s  ClockTime = 1 s

Courant Number mean: 0.213132 max: 0.967827
deltaT = 0.00754793
Time = 0.159425

PIMPLE: iteration 1
smoothSolver:  Solving for alpha.sludge, Initial residual = 0.00906011, Final residual = 1.38651e-07, No Iterations 3
Phase-1 volume fraction = 0.001  Min(alpha.sludge) = 0.000908319  Max(alpha.sludge) = 0.00109443
Applying the previous iteration correction flux
MULES: Correcting alpha.sludge
MULES: Correcting alpha.sludge
MULES: Correcting alpha.sludge
Phase-1 volume fraction = 0.001  Min(alpha.sludge) = 0.000901673  Max(alpha.sludge) = 0.00110148
DICPCG:  Solving for alpha.sludge, Initial residual = 0.0264768, Final residual = 4.61827e-07, No Iterations 4
Phase-1 volume fraction = 0.001  Min(alpha.sludge) = 0.000902758  Max(alpha.sludge) = 0.00110033
GAMG:  Solving for p_rgh, Initial residual = 0.0186523, Final residual = 0.000713974, No Iterations 3
time step continuity errors : sum local = 4.10792e-06, global = 1.85444e-19, cumulative = 3.62617e-19
GAMG:  Solving for p_rgh, Initial residual = 0.00908518, Final residual = 0.000344374, No Iterations 3
time step continuity errors : sum local = 1.91764e-06, global = 2.94942e-19, cumulative = 6.57558e-19
GAMG:  Solving for p_rgh, Initial residual = 0.00477768, Final residual = 8.44567e-07, No Iterations 12
time step continuity errors : sum local = 4.77446e-09, global = 1.54235e-19, cumulative = 8.11793e-19
DILUPBiCGStab:  Solving for epsilon, Initial residual = 0.016136, Final residual = 3.18987e-07, No Iterations 2
DILUPBiCGStab:  Solving for k, Initial residual = 0.0127332, Final residual = 5.86838e-07, No Iterations 2
ExecutionTime = 0.71 s  ClockTime = 1 s

Courant Number mean: 0.213062 max: 0.96162
deltaT = 0.00754793
Time = 0.166973

PIMPLE: iteration 1
smoothSolver:  Solving for alpha.sludge, Initial residual = 0.00890372, Final residual = 1.33059e-07, No Iterations 3
Phase-1 volume fraction = 0.001  Min(alpha.sludge) = 0.000904489  Max(alpha.sludge) = 0.0010985
Applying the previous iteration correction flux
MULES: Correcting alpha.sludge
MULES: Correcting alpha.sludge
MULES: Correcting alpha.sludge
Phase-1 volume fraction = 0.001  Min(alpha.sludge) = 0.00089782  Max(alpha.sludge) = 0.00110559
DICPCG:  Solving for alpha.sludge, Initial residual = 0.0260414, Final residual = 4.40693e-07, No Iterations 4
Phase-1 volume fraction = 0.001  Min(alpha.sludge) = 0.000898941  Max(alpha.sludge) = 0.0011044
GAMG:  Solving for p_rgh, Initial residual = 0.0177799, Final residual = 0.000632578, No Iterations 3
time step continuity errors : sum local = 3.6155e-06, global = 2.24909e-19, cumulative = 1.0367e-18
GAMG:  Solving for p_rgh, Initial residual = 0.00849043, Final residual = 0.000313064, No Iterations 3
time step continuity errors : sum local = 1.7307e-06, global = -7.42066e-20, cumulative = 9.62496e-19
GAMG:  Solving for p_rgh, Initial residual = 0.00457332, Final residual = 7.94291e-07, No Iterations 12
time step continuity errors : sum local = 4.45685e-09, global = 1.57575e-19, cumulative = 1.12007e-18
DILUPBiCGStab:  Solving for epsilon, Initial residual = 0.015003, Final residual = 2.7663e-07, No Iterations 2
DILUPBiCGStab:  Solving for k, Initial residual = 0.0119477, Final residual = 5.15993e-07, No Iterations 2
ExecutionTime = 0.73 s  ClockTime = 1 s

Courant Number mean: 0.212934 max: 0.953089
deltaT = 0.00830273
Time = 0.175275

PIMPLE: iteration 1
smoothSolver:  Solving for alpha.sludge, Initial residual = 0.00962686, Final residual = 2.12525e-07, No Iterations 3
Phase-1 volume fraction = 0.001  Min(alpha.sludge) = 0.000900942  Max(alpha.sludge) = 0.00110228
Applying the previous iteration correction flux
MULES: Correcting alpha.sludge
MULES: Correcting alpha.sludge
MULES: Correcting alpha.sludge
Phase-1 volume fraction = 0.001  Min(alpha.sludge) = 0.000893591  Max(alpha.sludge) = 0.00111012
DICPCG:  Solving for alpha.sludge, Initial residual = 0.0283572, Final residual = 7.01203e-07, No Iterations 4
Phase-1 volume fraction = 0.001  Min(alpha.sludge) = 0.000894876  Max(alpha.sludge) = 0.00110874
GAMG:  Solving for p_rgh, Initial residual = 0.0214083, Final residual = 0.000652118, No Iterations 3
time step continuity errors : sum local = 4.21078e-06, global = 1.98354e-19, cumulative = 1.31843e-18
GAMG:  Solving for p_rgh, Initial residual = 0.00853645, Final residual = 0.00026777, No Iterations 3
time step continuity errors : sum local = 1.68875e-06, global = 1.67434e-19, cumulative = 1.48586e-18
GAMG:  Solving for p_rgh, Initial residual = 0.00466872, Final residual = 7.10214e-07, No Iterations 12
time step continuity errors : sum local = 4.5102e-09, global = -1.51346e-19, cumulative = 1.33451e-18
DILUPBiCGStab:  Solving for epsilon, Initial residual = 0.0152096, Final residual = 3.90757e-07, No Iterations 2
DILUPBiCGStab:  Solving for k, Initial residual = 0.0122492, Final residual = 7.12141e-07, No Iterations 2
ExecutionTime = 0.75 s  ClockTime = 1 s

Courant Number mean: 0.234058 max: 1.03812
deltaT = 0.00830273
Time = 0.183578

PIMPLE: iteration 1
smoothSolver:  Solving for alpha.sludge, Initial residual = 0.00944657, Final residual = 2.02411e-07, No Iterations 3
Phase-1 volume fraction = 0.001  Min(alpha.sludge) = 0.000896977  Max(alpha.sludge) = 0.00110652
Applying the previous iteration correction flux
MULES: Correcting alpha.sludge
MULES: Correcting alpha.sludge
MULES: Correcting alpha.sludge
Phase-1 volume fraction = 0.001  Min(alpha.sludge) = 0.000889611  Max(alpha.sludge) = 0.00111439
DICPCG:  Solving for alpha.sludge, Initial residual = 0.0278092, Final residual = 6.62114e-07, No Iterations 4
Phase-1 volume fraction = 0.001  Min(alpha.sludge) = 0.000890953  Max(alpha.sludge) = 0.00111295
GAMG:  Solving for p_rgh, Initial residual = 0.0161322, Final residual = 0.000570523, No Iterations 3
time step continuity errors : sum local = 3.67089e-06, global = -2.71479e-19, cumulative = 1.06303e-18
GAMG:  Solving for p_rgh, Initial residual = 0.00768126, Final residual = 0.000271042, No Iterations 3
time step continuity errors : sum local = 1.69389e-06, global = 5.81783e-20, cumulative = 1.12121e-18
GAMG:  Solving for p_rgh, Initial residual = 0.00439996, Final residual = 6.92022e-07, No Iterations 12
time step continuity errors : sum local = 4.38334e-09, global = -1.3122e-19, cumulative = 9.89992e-19
DILUPBiCGStab:  Solving for epsilon, Initial residual = 0.0141013, Final residual = 3.31246e-07, No Iterations 2
DILUPBiCGStab:  Solving for k, Initial residual = 0.0114755, Final residual = 5.56048e-07, No Iterations 2
ExecutionTime = 0.77 s  ClockTime = 1 s

Courant Number mean: 0.233901 max: 1.03152
deltaT = 0.00830273
Time = 0.191881

PIMPLE: iteration 1
smoothSolver:  Solving for alpha.sludge, Initial residual = 0.0092611, Final residual = 1.91539e-07, No Iterations 3
Phase-1 volume fraction = 0.001  Min(alpha.sludge) = 0.000893146  Max(alpha.sludge) = 0.00111062
Applying the previous iteration correction flux
MULES: Correcting alpha.sludge
MULES: Correcting alpha.sludge
MULES: Correcting alpha.sludge
Phase-1 volume fraction = 0.001  Min(alpha.sludge) = 0.000885771  Max(alpha.sludge) = 0.00111852
DICPCG:  Solving for alpha.sludge, Initial residual = 0.0272624, Final residual = 6.23478e-07, No Iterations 4
Phase-1 volume fraction = 0.001  Min(alpha.sludge) = 0.000887183  Max(alpha.sludge) = 0.001117
GAMG:  Solving for p_rgh, Initial residual = 0.0148989, Final residual = 0.000534541, No Iterations 3
time step continuity errors : sum local = 3.40083e-06, global = -2.27073e-19, cumulative = 7.62919e-19
GAMG:  Solving for p_rgh, Initial residual = 0.00730006, Final residual = 0.000244938, No Iterations 3
time step continuity errors : sum local = 1.52441e-06, global = 3.38804e-20, cumulative = 7.96799e-19
GAMG:  Solving for p_rgh, Initial residual = 0.00421766, Final residual = 6.46274e-07, No Iterations 12
time step continuity errors : sum local = 4.07194e-09, global = -4.05231e-20, cumulative = 7.56276e-19
DILUPBiCGStab:  Solving for epsilon, Initial residual = 0.0130421, Final residual = 2.75125e-07, No Iterations 2
DILUPBiCGStab:  Solving for k, Initial residual = 0.010789, Final residual = 4.07996e-07, No Iterations 2
ExecutionTime = 0.79 s  ClockTime = 1 s

Courant Number mean: 0.233772 max: 1.02317
deltaT = 0.00830273
Time = 0.200184

PIMPLE: iteration 1
smoothSolver:  Solving for alpha.sludge, Initial residual = 0.00909898, Final residual = 1.80397e-07, No Iterations 3
Phase-1 volume fraction = 0.001  Min(alpha.sludge) = 0.000889462  Max(alpha.sludge) = 0.00111458
Applying the previous iteration correction flux
MULES: Correcting alpha.sludge
MULES: Correcting alpha.sludge
MULES: Correcting alpha.sludge
Phase-1 volume fraction = 0.001  Min(alpha.sludge) = 0.000882084  Max(alpha.sludge) = 0.00112249
DICPCG:  Solving for alpha.sludge, Initial residual = 0.02671, Final residual = 5.85318e-07, No Iterations 4
Phase-1 volume fraction = 0.001  Min(alpha.sludge) = 0.000883571  Max(alpha.sludge) = 0.00112089
GAMG:  Solving for p_rgh, Initial residual = 0.014329, Final residual = 0.000504245, No Iterations 3
time step continuity errors : sum local = 3.20329e-06, global = 5.1188e-20, cumulative = 8.07464e-19
GAMG:  Solving for p_rgh, Initial residual = 0.00678325, Final residual = 0.000228627, No Iterations 3
time step continuity errors : sum local = 1.4168e-06, global = 1.65796e-19, cumulative = 9.73259e-19
GAMG:  Solving for p_rgh, Initial residual = 0.00403886, Final residual = 6.05845e-07, No Iterations 12
time step continuity errors : sum local = 3.79952e-09, global = -6.64903e-20, cumulative = 9.06769e-19
DILUPBiCGStab:  Solving for epsilon, Initial residual = 0.0120386, Final residual = 2.3167e-07, No Iterations 2
DILUPBiCGStab:  Solving for k, Initial residual = 0.0102186, Final residual = 3.6692e-07, No Iterations 2
ExecutionTime = 0.81 s  ClockTime = 1 s

Courant Number mean: 0.233648 max: 1.01333
deltaT = 0.00830273
Time = 0.208486

PIMPLE: iteration 1
smoothSolver:  Solving for alpha.sludge, Initial residual = 0.00894094, Final residual = 1.68732e-07, No Iterations 3
Phase-1 volume fraction = 0.001  Min(alpha.sludge) = 0.000885927  Max(alpha.sludge) = 0.00111838
Applying the previous iteration correction flux
MULES: Correcting alpha.sludge
MULES: Correcting alpha.sludge
MULES: Correcting alpha.sludge
Phase-1 volume fraction = 0.001  Min(alpha.sludge) = 0.000878553  Max(alpha.sludge) = 0.00112631
DICPCG:  Solving for alpha.sludge, Initial residual = 0.0261617, Final residual = 5.48331e-07, No Iterations 4
Phase-1 volume fraction = 0.001  Min(alpha.sludge) = 0.000880119  Max(alpha.sludge) = 0.00112462
GAMG:  Solving for p_rgh, Initial residual = 0.0138302, Final residual = 0.000485383, No Iterations 3
time step continuity errors : sum local = 3.05751e-06, global = -3.77076e-19, cumulative = 5.29693e-19
GAMG:  Solving for p_rgh, Initial residual = 0.00653483, Final residual = 0.000214804, No Iterations 3
time step continuity errors : sum local = 1.32493e-06, global = 1.78278e-19, cumulative = 7.07971e-19
GAMG:  Solving for p_rgh, Initial residual = 0.00389969, Final residual = 5.74118e-07, No Iterations 12
time step continuity errors : sum local = 3.58348e-09, global = 9.94136e-21, cumulative = 7.17912e-19
DILUPBiCGStab:  Solving for epsilon, Initial residual = 0.0110847, Final residual = 1.8731e-07, No Iterations 2
DILUPBiCGStab:  Solving for k, Initial residual = 0.00975073, Final residual = 3.86805e-07, No Iterations 2
ExecutionTime = 0.82 s  ClockTime = 1 s

Courant Number mean: 0.233528 max: 1.00819
deltaT = 0.00830273
Time = 0.216789

PIMPLE: iteration 1
smoothSolver:  Solving for alpha.sludge, Initial residual = 0.00879042, Final residual = 1.57241e-07, No Iterations 3
Phase-1 volume fraction = 0.001  Min(alpha.sludge) = 0.000882543  Max(alpha.sludge) = 0.00112203
Applying the previous iteration correction flux
MULES: Correcting alpha.sludge
MULES: Correcting alpha.sludge
MULES: Correcting alpha.sludge
Phase-1 volume fraction = 0.001  Min(alpha.sludge) = 0.000875176  Max(alpha.sludge) = 0.00112996
DICPCG:  Solving for alpha.sludge, Initial residual = 0.0256204, Final residual = 5.12958e-07, No Iterations 4
Phase-1 volume fraction = 0.001  Min(alpha.sludge) = 0.000876823  Max(alpha.sludge) = 0.00112819
GAMG:  Solving for p_rgh, Initial residual = 0.013092, Final residual = 0.000453606, No Iterations 3
time step continuity errors : sum local = 2.84468e-06, global = -2.33027e-19, cumulative = 4.84885e-19
GAMG:  Solving for p_rgh, Initial residual = 0.00622661, Final residual = 0.000205454, No Iterations 3
time step continuity errors : sum local = 1.26079e-06, global = -2.30993e-19, cumulative = 2.53893e-19
GAMG:  Solving for p_rgh, Initial residual = 0.00377171, Final residual = 9.90745e-07, No Iterations 11
time step continuity errors : sum local = 6.15786e-09, global = -6.06394e-20, cumulative = 1.93253e-19
DILUPBiCGStab:  Solving for epsilon, Initial residual = 0.0102202, Final residual = 1.47117e-07, No Iterations 2
DILUPBiCGStab:  Solving for k, Initial residual = 0.00939679, Final residual = 4.27396e-07, No Iterations 2
ExecutionTime = 0.84 s  ClockTime = 1 s

Courant Number mean: 0.233371 max: 1.00317
deltaT = 0.00830273
Time = 0.225092

PIMPLE: iteration 1
smoothSolver:  Solving for alpha.sludge, Initial residual = 0.00865428, Final residual = 1.45779e-07, No Iterations 3
Phase-1 volume fraction = 0.001  Min(alpha.sludge) = 0.000879309  Max(alpha.sludge) = 0.00112552
Applying the previous iteration correction flux
MULES: Correcting alpha.sludge
MULES: Correcting alpha.sludge
MULES: Correcting alpha.sludge
Phase-1 volume fraction = 0.001  Min(alpha.sludge) = 0.000871952  Max(alpha.sludge) = 0.00113346
DICPCG:  Solving for alpha.sludge, Initial residual = 0.0250861, Final residual = 4.7921e-07, No Iterations 4
Phase-1 volume fraction = 0.001  Min(alpha.sludge) = 0.000873681  Max(alpha.sludge) = 0.00113159
GAMG:  Solving for p_rgh, Initial residual = 0.0125332, Final residual = 0.000431526, No Iterations 3
time step continuity errors : sum local = 2.68751e-06, global = -1.89945e-20, cumulative = 1.74259e-19
GAMG:  Solving for p_rgh, Initial residual = 0.00599553, Final residual = 0.000196112, No Iterations 3
time step continuity errors : sum local = 1.19644e-06, global = -1.66294e-19, cumulative = 7.96471e-21
GAMG:  Solving for p_rgh, Initial residual = 0.0036609, Final residual = 9.4276e-07, No Iterations 11
time step continuity errors : sum local = 5.83244e-09, global = 4.8536e-20, cumulative = 5.65007e-20
DILUPBiCGStab:  Solving for epsilon, Initial residual = 0.00940076, Final residual = 1.14921e-07, No Iterations 2
DILUPBiCGStab:  Solving for k, Initial residual = 0.00912585, Final residual = 4.81079e-07, No Iterations 2
ExecutionTime = 0.86 s  ClockTime = 1 s

Courant Number mean: 0.233199 max: 0.998293
deltaT = 0.00830273
Time = 0.233395

PIMPLE: iteration 1
smoothSolver:  Solving for alpha.sludge, Initial residual = 0.00854372, Final residual = 1.35217e-07, No Iterations 3
Phase-1 volume fraction = 0.001  Min(alpha.sludge) = 0.000876219  Max(alpha.sludge) = 0.00112887
Applying the previous iteration correction flux
MULES: Correcting alpha.sludge
MULES: Correcting alpha.sludge
MULES: Correcting alpha.sludge
Phase-1 volume fraction = 0.001  Min(alpha.sludge) = 0.000868875  Max(alpha.sludge) = 0.0011368
DICPCG:  Solving for alpha.sludge, Initial residual = 0.0245615, Final residual = 4.47302e-07, No Iterations 4
Phase-1 volume fraction = 0.001  Min(alpha.sludge) = 0.000870685  Max(alpha.sludge) = 0.00113484
GAMG:  Solving for p_rgh, Initial residual = 0.0119715, Final residual = 0.000411154, No Iterations 3
time step continuity errors : sum local = 2.54335e-06, global = -5.4719e-19, cumulative = -4.9069e-19
GAMG:  Solving for p_rgh, Initial residual = 0.00577949, Final residual = 0.000180116, No Iterations 3
time step continuity errors : sum local = 1.09228e-06, global = 1.9632e-19, cumulative = -2.94369e-19
GAMG:  Solving for p_rgh, Initial residual = 0.0035708, Final residual = 8.67794e-07, No Iterations 11
time step continuity errors : sum local = 5.34324e-09, global = -3.29572e-19, cumulative = -6.23941e-19
DILUPBiCGStab:  Solving for epsilon, Initial residual = 0.00863898, Final residual = 9.29517e-08, No Iterations 2
DILUPBiCGStab:  Solving for k, Initial residual = 0.00892858, Final residual = 5.33635e-07, No Iterations 2
ExecutionTime = 0.88 s  ClockTime = 1 s

Courant Number mean: 0.233033 max: 1.00439
deltaT = 0.00830273
Time = 0.241697

PIMPLE: iteration 1
smoothSolver:  Solving for alpha.sludge, Initial residual = 0.00843897, Final residual = 1.27578e-07, No Iterations 3
Phase-1 volume fraction = 0.001  Min(alpha.sludge) = 0.000873268  Max(alpha.sludge) = 0.00113207
Applying the previous iteration correction flux
MULES: Correcting alpha.sludge
MULES: Correcting alpha.sludge
MULES: Correcting alpha.sludge
Phase-1 volume fraction = 0.001  Min(alpha.sludge) = 0.000865938  Max(alpha.sludge) = 0.00113999
DICPCG:  Solving for alpha.sludge, Initial residual = 0.0240617, Final residual = 4.17403e-07, No Iterations 4
Phase-1 volume fraction = 0.001  Min(alpha.sludge) = 0.000867827  Max(alpha.sludge) = 0.00113795
GAMG:  Solving for p_rgh, Initial residual = 0.0110882, Final residual = 0.000389259, No Iterations 3
time step continuity errors : sum local = 2.39504e-06, global = -1.42529e-19, cumulative = -7.6647e-19
GAMG:  Solving for p_rgh, Initial residual = 0.00564223, Final residual = 0.000173918, No Iterations 3
time step continuity errors : sum local = 1.0508e-06, global = -1.26022e-19, cumulative = -8.92491e-19
GAMG:  Solving for p_rgh, Initial residual = 0.00349387, Final residual = 8.22904e-07, No Iterations 11
time step continuity errors : sum local = 5.04887e-09, global = 3.04149e-19, cumulative = -5.88343e-19
DILUPBiCGStab:  Solving for epsilon, Initial residual = 0.00795175, Final residual = 8.25325e-08, No Iterations 2
DILUPBiCGStab:  Solving for k, Initial residual = 0.00881907, Final residual = 5.66864e-07, No Iterations 2
ExecutionTime = 0.89 s  ClockTime = 1 s

Courant Number mean: 0.232899 max: 1.0103
deltaT = 0.00830273
Time = 0.25

PIMPLE: iteration 1
smoothSolver:  Solving for alpha.sludge, Initial residual = 0.00834725, Final residual = 1.22202e-07, No Iterations 3
Phase-1 volume fraction = 0.001  Min(alpha.sludge) = 0.000870447  Max(alpha.sludge) = 0.00113513
Applying the previous iteration correction flux
MULES: Correcting alpha.sludge
MULES: Correcting alpha.sludge
MULES: Correcting alpha.sludge
Phase-1 volume fraction = 0.001  Min(alpha.sludge) = 0.000863133  Max(alpha.sludge) = 0.00114305
DICPCG:  Solving for alpha.sludge, Initial residual = 0.0235828, Final residual = 3.8957e-07, No Iterations 4
Phase-1 volume fraction = 0.001  Min(alpha.sludge) = 0.000865099  Max(alpha.sludge) = 0.00114092
GAMG:  Solving for p_rgh, Initial residual = 0.0108429, Final residual = 0.000377014, No Iterations 3
time step continuity errors : sum local = 2.32542e-06, global = 2.31377e-19, cumulative = -3.56966e-19
GAMG:  Solving for p_rgh, Initial residual = 0.00551845, Final residual = 0.00016438, No Iterations 3
time step continuity errors : sum local = 9.93126e-07, global = 2.88186e-20, cumulative = -3.28147e-19
GAMG:  Solving for p_rgh, Initial residual = 0.00342585, Final residual = 7.72488e-07, No Iterations 11
time step continuity errors : sum local = 4.72151e-09, global = -3.3377e-19, cumulative = -6.61917e-19
DILUPBiCGStab:  Solving for epsilon, Initial residual = 0.00733023, Final residual = 8.43955e-08, No Iterations 2
DILUPBiCGStab:  Solving for k, Initial residual = 0.00877166, Final residual = 5.72819e-07, No Iterations 2
ExecutionTime = 0.92 s  ClockTime = 1 s

Courant Number mean: 0.232719 max: 1.01632
deltaT = 0.00806452
Time = 0.258065

PIMPLE: iteration 1
smoothSolver:  Solving for alpha.sludge, Initial residual = 0.00802965, Final residual = 1.011e-07, No Iterations 3
Phase-1 volume fraction = 0.001  Min(alpha.sludge) = 0.00086767  Max(alpha.sludge) = 0.00113815
Applying the previous iteration correction flux
MULES: Correcting alpha.sludge
MULES: Correcting alpha.sludge
MULES: Correcting alpha.sludge
Phase-1 volume fraction = 0.001  Min(alpha.sludge) = 0.000860579  Max(alpha.sludge) = 0.00114583
DICPCG:  Solving for alpha.sludge, Initial residual = 0.0223958, Final residual = 3.10183e-07, No Iterations 4
Phase-1 volume fraction = 0.001  Min(alpha.sludge) = 0.00086256  Max(alpha.sludge) = 0.00114369
GAMG:  Solving for p_rgh, Initial residual = 0.0105156, Final residual = 0.000348837, No Iterations 3
time step continuity errors : sum local = 2.04849e-06, global = 5.88858e-19, cumulative = -7.30595e-20
GAMG:  Solving for p_rgh, Initial residual = 0.00541095, Final residual = 0.000168113, No Iterations 3
time step continuity errors : sum local = 9.64823e-07, global = 3.39677e-19, cumulative = 2.66618e-19
GAMG:  Solving for p_rgh, Initial residual = 0.00331843, Final residual = 7.30256e-07, No Iterations 11
time step continuity errors : sum local = 4.27569e-09, global = 1.21891e-19, cumulative = 3.88509e-19
DILUPBiCGStab:  Solving for epsilon, Initial residual = 0.00660037, Final residual = 7.9791e-08, No Iterations 2
DILUPBiCGStab:  Solving for k, Initial residual = 0.00851316, Final residual = 4.7165e-07, No Iterations 2
ExecutionTime = 0.94 s  ClockTime = 1 s

Courant Number mean: 0.225864 max: 0.993286
deltaT = 0.00806452
Time = 0.266129

PIMPLE: iteration 1
smoothSolver:  Solving for alpha.sludge, Initial residual = 0.00796362, Final residual = 9.84294e-08, No Iterations 3
Phase-1 volume fraction = 0.001  Min(alpha.sludge) = 0.000865148  Max(alpha.sludge) = 0.00114089
Applying the previous iteration correction flux
MULES: Correcting alpha.sludge
MULES: Correcting alpha.sludge
MULES: Correcting alpha.sludge
Phase-1 volume fraction = 0.001  Min(alpha.sludge) = 0.000858074  Max(alpha.sludge) = 0.00114857
DICPCG:  Solving for alpha.sludge, Initial residual = 0.0219644, Final residual = 2.9034e-07, No Iterations 4
Phase-1 volume fraction = 0.001  Min(alpha.sludge) = 0.000860122  Max(alpha.sludge) = 0.00114635
GAMG:  Solving for p_rgh, Initial residual = 0.0102825, Final residual = 0.000345393, No Iterations 3
time step continuity errors : sum local = 2.02483e-06, global = 1.13074e-19, cumulative = 5.01583e-19
GAMG:  Solving for p_rgh, Initial residual = 0.00526405, Final residual = 0.000150658, No Iterations 3
time step continuity errors : sum local = 8.6768e-07, global = -2.96573e-19, cumulative = 2.05009e-19
GAMG:  Solving for p_rgh, Initial residual = 0.00326112, Final residual = 6.80563e-07, No Iterations 11
time step continuity errors : sum local = 3.96677e-09, global = 4.60036e-20, cumulative = 2.51013e-19
DILUPBiCGStab:  Solving for epsilon, Initial residual = 0.00612066, Final residual = 9.70379e-07, No Iterations 2
DILUPBiCGStab:  Solving for k, Initial residual = 0.00852035, Final residual = 4.52478e-07, No Iterations 2
ExecutionTime = 0.96 s  ClockTime = 1 s

Courant Number mean: 0.225703 max: 1.00014
deltaT = 0.00806452
Time = 0.274194

PIMPLE: iteration 1
smoothSolver:  Solving for alpha.sludge, Initial residual = 0.00790342, Final residual = 9.64982e-08, No Iterations 3
Phase-1 volume fraction = 0.001  Min(alpha.sludge) = 0.000862724  Max(alpha.sludge) = 0.00114353
Applying the previous iteration correction flux
MULES: Correcting alpha.sludge
MULES: Correcting alpha.sludge
MULES: Correcting alpha.sludge
Phase-1 volume fraction = 0.001  Min(alpha.sludge) = 0.000855666  Max(alpha.sludge) = 0.0011512
DICPCG:  Solving for alpha.sludge, Initial residual = 0.021539, Final residual = 2.71917e-07, No Iterations 4
Phase-1 volume fraction = 0.001  Min(alpha.sludge) = 0.000857779  Max(alpha.sludge) = 0.00114891
GAMG:  Solving for p_rgh, Initial residual = 0.0101539, Final residual = 0.000326721, No Iterations 3
time step continuity errors : sum local = 1.92658e-06, global = 4.43795e-21, cumulative = 2.55451e-19
GAMG:  Solving for p_rgh, Initial residual = 0.00520969, Final residual = 0.000148736, No Iterations 3
time step continuity errors : sum local = 8.57137e-07, global = 2.29832e-19, cumulative = 4.85283e-19
GAMG:  Solving for p_rgh, Initial residual = 0.00321583, Final residual = 6.22131e-07, No Iterations 11
time step continuity errors : sum local = 3.61958e-09, global = 8.25945e-20, cumulative = 5.67878e-19
DILUPBiCGStab:  Solving for epsilon, Initial residual = 0.00570218, Final residual = 9.66939e-07, No Iterations 2
DILUPBiCGStab:  Solving for k, Initial residual = 0.00854536, Final residual = 4.28309e-07, No Iterations 2
ExecutionTime = 0.99 s  ClockTime = 1 s

Courant Number mean: 0.225532 max: 1.00633
deltaT = 0.00806452
Time = 0.282258

PIMPLE: iteration 1
smoothSolver:  Solving for alpha.sludge, Initial residual = 0.00785119, Final residual = 9.49593e-08, No Iterations 3
Phase-1 volume fraction = 0.001  Min(alpha.sludge) = 0.00086039  Max(alpha.sludge) = 0.00114607
Applying the previous iteration correction flux
MULES: Correcting alpha.sludge
MULES: Correcting alpha.sludge
MULES: Correcting alpha.sludge
Phase-1 volume fraction = 0.001  Min(alpha.sludge) = 0.000853347  Max(alpha.sludge) = 0.00115373
DICPCG:  Solving for alpha.sludge, Initial residual = 0.0211181, Final residual = 2.54807e-07, No Iterations 4
Phase-1 volume fraction = 0.001  Min(alpha.sludge) = 0.000855523  Max(alpha.sludge) = 0.00115137
GAMG:  Solving for p_rgh, Initial residual = 0.0101352, Final residual = 0.000319625, No Iterations 3
time step continuity errors : sum local = 1.86163e-06, global = 3.32138e-19, cumulative = 9.00016e-19
GAMG:  Solving for p_rgh, Initial residual = 0.00519657, Final residual = 0.000146478, No Iterations 3
time step continuity errors : sum local = 8.37999e-07, global = 3.01913e-20, cumulative = 9.30207e-19
GAMG:  Solving for p_rgh, Initial residual = 0.00317311, Final residual = 5.7538e-07, No Iterations 11
time step continuity errors : sum local = 3.3373e-09, global = -1.33913e-20, cumulative = 9.16816e-19
DILUPBiCGStab:  Solving for epsilon, Initial residual = 0.00534617, Final residual = 9.738e-07, No Iterations 2
DILUPBiCGStab:  Solving for k, Initial residual = 0.00859103, Final residual = 3.98896e-07, No Iterations 2
ExecutionTime = 1.01 s  ClockTime = 1 s

Courant Number mean: 0.225359 max: 1.01258
deltaT = 0.00806452
Time = 0.290323

PIMPLE: iteration 1
smoothSolver:  Solving for alpha.sludge, Initial residual = 0.00780431, Final residual = 9.38084e-08, No Iterations 3
Phase-1 volume fraction = 0.001  Min(alpha.sludge) = 0.000858138  Max(alpha.sludge) = 0.00114852
Applying the previous iteration correction flux
MULES: Correcting alpha.sludge
MULES: Correcting alpha.sludge
MULES: Correcting alpha.sludge
Phase-1 volume fraction = 0.001  Min(alpha.sludge) = 0.00085111  Max(alpha.sludge) = 0.00115618
DICPCG:  Solving for alpha.sludge, Initial residual = 0.0207055, Final residual = 2.38898e-07, No Iterations 4
Phase-1 volume fraction = 0.001  Min(alpha.sludge) = 0.000853347  Max(alpha.sludge) = 0.00115375
GAMG:  Solving for p_rgh, Initial residual = 0.0099237, Final residual = 0.000308984, No Iterations 3
time step continuity errors : sum local = 1.80648e-06, global = 8.35796e-20, cumulative = 1.0004e-18
GAMG:  Solving for p_rgh, Initial residual = 0.0052005, Final residual = 0.000145775, No Iterations 3
time step continuity errors : sum local = 8.33091e-07, global = 1.99907e-19, cumulative = 1.2003e-18
GAMG:  Solving for p_rgh, Initial residual = 0.00312726, Final residual = 9.69359e-07, No Iterations 10
time step continuity errors : sum local = 5.61759e-09, global = 2.96468e-19, cumulative = 1.49677e-18
DILUPBiCGStab:  Solving for epsilon, Initial residual = 0.00505348, Final residual = 9.65641e-07, No Iterations 2
DILUPBiCGStab:  Solving for k, Initial residual = 0.00865791, Final residual = 3.75047e-07, No Iterations 2
ExecutionTime = 1.03 s  ClockTime = 2 s

Courant Number mean: 0.225194 max: 1.01846
deltaT = 0.00806452
Time = 0.298387

PIMPLE: iteration 1
smoothSolver:  Solving for alpha.sludge, Initial residual = 0.00776408, Final residual = 9.31402e-08, No Iterations 3
Phase-1 volume fraction = 0.001  Min(alpha.sludge) = 0.00085596  Max(alpha.sludge) = 0.0011509
Applying the previous iteration correction flux
MULES: Correcting alpha.sludge
MULES: Correcting alpha.sludge
MULES: Correcting alpha.sludge
Phase-1 volume fraction = 0.001  Min(alpha.sludge) = 0.000848948  Max(alpha.sludge) = 0.00115855
DICPCG:  Solving for alpha.sludge, Initial residual = 0.0203037, Final residual = 2.24098e-07, No Iterations 4
Phase-1 volume fraction = 0.001  Min(alpha.sludge) = 0.000851244  Max(alpha.sludge) = 0.00115606
GAMG:  Solving for p_rgh, Initial residual = 0.00973625, Final residual = 0.000294045, No Iterations 3
time step continuity errors : sum local = 1.69683e-06, global = 2.05983e-19, cumulative = 1.70275e-18
GAMG:  Solving for p_rgh, Initial residual = 0.00508617, Final residual = 0.000139225, No Iterations 3
time step continuity errors : sum local = 7.90037e-07, global = -1.28739e-19, cumulative = 1.57401e-18
GAMG:  Solving for p_rgh, Initial residual = 0.00308263, Final residual = 8.70744e-07, No Iterations 10
time step continuity errors : sum local = 5.03549e-09, global = 4.17626e-19, cumulative = 1.99164e-18
DILUPBiCGStab:  Solving for epsilon, Initial residual = 0.00484399, Final residual = 9.70648e-07, No Iterations 2
DILUPBiCGStab:  Solving for k, Initial residual = 0.0087301, Final residual = 3.52999e-07, No Iterations 2
ExecutionTime = 1.05 s  ClockTime = 2 s

Courant Number mean: 0.225052 max: 1.0242
deltaT = 0.00775434
Time = 0.306141

PIMPLE: iteration 1
smoothSolver:  Solving for alpha.sludge, Initial residual = 0.00743237, Final residual = 7.52937e-08, No Iterations 3
Phase-1 volume fraction = 0.001  Min(alpha.sludge) = 0.000853747  Max(alpha.sludge) = 0.00115331
Applying the previous iteration correction flux
MULES: Correcting alpha.sludge
MULES: Correcting alpha.sludge
MULES: Correcting alpha.sludge
Phase-1 volume fraction = 0.001  Min(alpha.sludge) = 0.000847018  Max(alpha.sludge) = 0.00116066
DICPCG:  Solving for alpha.sludge, Initial residual = 0.0190862, Final residual = 1.68943e-07, No Iterations 4
Phase-1 volume fraction = 0.001  Min(alpha.sludge) = 0.000849278  Max(alpha.sludge) = 0.00115821
GAMG:  Solving for p_rgh, Initial residual = 0.010164, Final residual = 0.000288741, No Iterations 3
time step continuity errors : sum local = 1.61554e-06, global = 2.33949e-19, cumulative = 2.22559e-18
GAMG:  Solving for p_rgh, Initial residual = 0.00509345, Final residual = 0.000145818, No Iterations 3
time step continuity errors : sum local = 7.8654e-07, global = 2.35854e-19, cumulative = 2.46144e-18
GAMG:  Solving for p_rgh, Initial residual = 0.00299589, Final residual = 8.02983e-07, No Iterations 10
time step continuity errors : sum local = 4.3889e-09, global = 2.52901e-19, cumulative = 2.71434e-18
DILUPBiCGStab:  Solving for epsilon, Initial residual = 0.00452909, Final residual = 8.1557e-07, No Iterations 2
DILUPBiCGStab:  Solving for k, Initial residual = 0.0084819, Final residual = 2.70917e-07, No Iterations 2
ExecutionTime = 1.07 s  ClockTime = 2 s

Courant Number mean: 0.216249 max: 0.989087
deltaT = 0.00775434
Time = 0.313896

PIMPLE: iteration 1
smoothSolver:  Solving for alpha.sludge, Initial residual = 0.00740322, Final residual = 7.48702e-08, No Iterations 3
Phase-1 volume fraction = 0.001  Min(alpha.sludge) = 0.000851764  Max(alpha.sludge) = 0.00115547
Applying the previous iteration correction flux
MULES: Correcting alpha.sludge
MULES: Correcting alpha.sludge
MULES: Correcting alpha.sludge
Phase-1 volume fraction = 0.001  Min(alpha.sludge) = 0.00084505  Max(alpha.sludge) = 0.00116281
DICPCG:  Solving for alpha.sludge, Initial residual = 0.0187401, Final residual = 1.59009e-07, No Iterations 4
Phase-1 volume fraction = 0.001  Min(alpha.sludge) = 0.000847361  Max(alpha.sludge) = 0.0011603
GAMG:  Solving for p_rgh, Initial residual = 0.00959373, Final residual = 0.00028029, No Iterations 3
time step continuity errors : sum local = 1.49009e-06, global = -2.64314e-19, cumulative = 2.45003e-18
GAMG:  Solving for p_rgh, Initial residual = 0.00498712, Final residual = 0.000136277, No Iterations 3
time step continuity errors : sum local = 7.28336e-07, global = -2.08414e-19, cumulative = 2.24162e-18
[...]
DILUPBiCGStab:  Solving for epsilon, Initial residual = 1.07836e-06, Final residual = 2.71037e-08, No Iterations 1
DILUPBiCGStab:  Solving for k, Initial residual = 1.7007e-06, Final residual = 5.27955e-08, No Iterations 1
ExecutionTime = 18.16 s  ClockTime = 20 s

Courant Number mean: 0.232773 max: 1.02039
deltaT = 0.0113636
Time = 9.875

PIMPLE: iteration 1
smoothSolver:  Solving for alpha.sludge, Initial residual = 0.00425158, Final residual = 8.03412e-07, No Iterations 2
Phase-1 volume fraction = 0.001  Min(alpha.sludge) = 0.000324072  Max(alpha.sludge) = 0.00195691
Applying the previous iteration correction flux
MULES: Correcting alpha.sludge
MULES: Correcting alpha.sludge
MULES: Correcting alpha.sludge
Phase-1 volume fraction = 0.001  Min(alpha.sludge) = 0.00032045  Max(alpha.sludge) = 0.00196274
DICPCG:  Solving for alpha.sludge, Initial residual = 0.00492363, Final residual = 8.61624e-08, No Iterations 3
Phase-1 volume fraction = 0.001  Min(alpha.sludge) = 0.000321986  Max(alpha.sludge) = 0.0019595
GAMG:  Solving for p_rgh, Initial residual = 2.20889e-06, Final residual = 5.27255e-07, No Iterations 1
time step continuity errors : sum local = 4.18797e-09, global = 1.65974e-19, cumulative = 3.38567e-18
GAMG:  Solving for p_rgh, Initial residual = 7.18789e-07, Final residual = 7.18789e-07, No Iterations 0
time step continuity errors : sum local = 5.64924e-09, global = 4.34858e-20, cumulative = 3.42915e-18
GAMG:  Solving for p_rgh, Initial residual = 9.56279e-07, Final residual = 9.56279e-07, No Iterations 0
time step continuity errors : sum local = 7.51576e-09, global = 6.71897e-20, cumulative = 3.49634e-18
DILUPBiCGStab:  Solving for epsilon, Initial residual = 1.03618e-06, Final residual = 2.58712e-08, No Iterations 1
DILUPBiCGStab:  Solving for k, Initial residual = 1.6715e-06, Final residual = 5.17376e-08, No Iterations 1
ExecutionTime = 18.17 s  ClockTime = 20 s

Courant Number mean: 0.232773 max: 1.02039
deltaT = 0.0113636
Time = 9.88636

PIMPLE: iteration 1
smoothSolver:  Solving for alpha.sludge, Initial residual = 0.00425119, Final residual = 8.03274e-07, No Iterations 2
Phase-1 volume fraction = 0.001  Min(alpha.sludge) = 0.000324032  Max(alpha.sludge) = 0.00195706
Applying the previous iteration correction flux
MULES: Correcting alpha.sludge
MULES: Correcting alpha.sludge
MULES: Correcting alpha.sludge
Phase-1 volume fraction = 0.001  Min(alpha.sludge) = 0.00032041  Max(alpha.sludge) = 0.00196289
DICPCG:  Solving for alpha.sludge, Initial residual = 0.00492319, Final residual = 8.61691e-08, No Iterations 3
Phase-1 volume fraction = 0.001  Min(alpha.sludge) = 0.000321947  Max(alpha.sludge) = 0.00195966
GAMG:  Solving for p_rgh, Initial residual = 2.60506e-06, Final residual = 5.07972e-07, No Iterations 1
time step continuity errors : sum local = 4.04789e-09, global = -3.79867e-19, cumulative = 3.11648e-18
GAMG:  Solving for p_rgh, Initial residual = 8.08815e-07, Final residual = 8.08815e-07, No Iterations 0
time step continuity errors : sum local = 6.35678e-09, global = -4.05462e-22, cumulative = 3.11607e-18
GAMG:  Solving for p_rgh, Initial residual = 1.07933e-06, Final residual = 3.90298e-07, No Iterations 1
time step continuity errors : sum local = 3.12696e-09, global = 5.48933e-21, cumulative = 3.12156e-18
DILUPBiCGStab:  Solving for epsilon, Initial residual = 9.99626e-07, Final residual = 9.99626e-07, No Iterations 0
DILUPBiCGStab:  Solving for k, Initial residual = 1.68184e-06, Final residual = 5.20809e-08, No Iterations 1
ExecutionTime = 18.19 s  ClockTime = 20 s

Courant Number mean: 0.232773 max: 1.02039
deltaT = 0.0113636
Time = 9.89773

PIMPLE: iteration 1
smoothSolver:  Solving for alpha.sludge, Initial residual = 0.00425079, Final residual = 8.03135e-07, No Iterations 2
Phase-1 volume fraction = 0.001  Min(alpha.sludge) = 0.000323992  Max(alpha.sludge) = 0.00195722
Applying the previous iteration correction flux
MULES: Correcting alpha.sludge
MULES: Correcting alpha.sludge
MULES: Correcting alpha.sludge
Phase-1 volume fraction = 0.001  Min(alpha.sludge) = 0.000320371  Max(alpha.sludge) = 0.00196305
DICPCG:  Solving for alpha.sludge, Initial residual = 0.00492276, Final residual = 8.61763e-08, No Iterations 3
Phase-1 volume fraction = 0.001  Min(alpha.sludge) = 0.000321907  Max(alpha.sludge) = 0.00195982
GAMG:  Solving for p_rgh, Initial residual = 2.26589e-06, Final residual = 5.12134e-07, No Iterations 1
time step continuity errors : sum local = 4.08268e-09, global = -2.48034e-20, cumulative = 3.09676e-18
GAMG:  Solving for p_rgh, Initial residual = 7.24472e-07, Final residual = 7.24472e-07, No Iterations 0
time step continuity errors : sum local = 5.6939e-09, global = -8.64414e-20, cumulative = 3.01032e-18
GAMG:  Solving for p_rgh, Initial residual = 9.70387e-07, Final residual = 9.70387e-07, No Iterations 0
time step continuity errors : sum local = 7.62664e-09, global = -3.8338e-19, cumulative = 2.62694e-18
DILUPBiCGStab:  Solving for epsilon, Initial residual = 1.08686e-06, Final residual = 2.73002e-08, No Iterations 1
DILUPBiCGStab:  Solving for k, Initial residual = 1.68558e-06, Final residual = 5.22e-08, No Iterations 1
ExecutionTime = 18.21 s  ClockTime = 20 s

Courant Number mean: 0.232772 max: 1.02039
deltaT = 0.0113636
Time = 9.90909

PIMPLE: iteration 1
smoothSolver:  Solving for alpha.sludge, Initial residual = 0.0042504, Final residual = 8.02997e-07, No Iterations 2
Phase-1 volume fraction = 0.001  Min(alpha.sludge) = 0.000323953  Max(alpha.sludge) = 0.00195738
Applying the previous iteration correction flux
MULES: Correcting alpha.sludge
MULES: Correcting alpha.sludge
MULES: Correcting alpha.sludge
Phase-1 volume fraction = 0.001  Min(alpha.sludge) = 0.000320331  Max(alpha.sludge) = 0.00196321
DICPCG:  Solving for alpha.sludge, Initial residual = 0.00492231, Final residual = 8.61829e-08, No Iterations 3
Phase-1 volume fraction = 0.001  Min(alpha.sludge) = 0.000321868  Max(alpha.sludge) = 0.00195997
GAMG:  Solving for p_rgh, Initial residual = 2.60254e-06, Final residual = 5.19778e-07, No Iterations 1
time step continuity errors : sum local = 4.13676e-09, global = -1.52259e-19, cumulative = 2.47468e-18
GAMG:  Solving for p_rgh, Initial residual = 8.32479e-07, Final residual = 8.32479e-07, No Iterations 0
time step continuity errors : sum local = 6.54277e-09, global = -3.01114e-19, cumulative = 2.17356e-18
GAMG:  Solving for p_rgh, Initial residual = 1.10534e-06, Final residual = 4.00862e-07, No Iterations 1
time step continuity errors : sum local = 3.20126e-09, global = 4.60998e-19, cumulative = 2.63456e-18
DILUPBiCGStab:  Solving for epsilon, Initial residual = 1.04308e-06, Final residual = 2.60292e-08, No Iterations 1
DILUPBiCGStab:  Solving for k, Initial residual = 1.65668e-06, Final residual = 5.11928e-08, No Iterations 1
ExecutionTime = 18.22 s  ClockTime = 20 s

Courant Number mean: 0.232772 max: 1.02039
deltaT = 0.0113636
Time = 9.92045

PIMPLE: iteration 1
smoothSolver:  Solving for alpha.sludge, Initial residual = 0.00425, Final residual = 8.02858e-07, No Iterations 2
Phase-1 volume fraction = 0.001  Min(alpha.sludge) = 0.000323914  Max(alpha.sludge) = 0.00195753
Applying the previous iteration correction flux
MULES: Correcting alpha.sludge
MULES: Correcting alpha.sludge
MULES: Correcting alpha.sludge
Phase-1 volume fraction = 0.001  Min(alpha.sludge) = 0.000320292  Max(alpha.sludge) = 0.00196336
DICPCG:  Solving for alpha.sludge, Initial residual = 0.00492188, Final residual = 8.61894e-08, No Iterations 3
Phase-1 volume fraction = 0.001  Min(alpha.sludge) = 0.000321829  Max(alpha.sludge) = 0.00196013
GAMG:  Solving for p_rgh, Initial residual = 2.12447e-06, Final residual = 4.91205e-07, No Iterations 1
time step continuity errors : sum local = 3.90105e-09, global = 4.25478e-19, cumulative = 3.06004e-18
GAMG:  Solving for p_rgh, Initial residual = 6.92653e-07, Final residual = 6.92653e-07, No Iterations 0
time step continuity errors : sum local = 5.44382e-09, global = 2.05398e-19, cumulative = 3.26544e-18
GAMG:  Solving for p_rgh, Initial residual = 9.35727e-07, Final residual = 9.35727e-07, No Iterations 0
time step continuity errors : sum local = 7.35424e-09, global = 3.41898e-19, cumulative = 3.60734e-18
DILUPBiCGStab:  Solving for epsilon, Initial residual = 1.00504e-06, Final residual = 2.50176e-08, No Iterations 1
DILUPBiCGStab:  Solving for k, Initial residual = 1.62926e-06, Final residual = 5.02068e-08, No Iterations 1
ExecutionTime = 18.24 s  ClockTime = 20 s

Courant Number mean: 0.232772 max: 1.02039
deltaT = 0.0113636
Time = 9.93182

PIMPLE: iteration 1
smoothSolver:  Solving for alpha.sludge, Initial residual = 0.00424961, Final residual = 8.02721e-07, No Iterations 2
Phase-1 volume fraction = 0.001  Min(alpha.sludge) = 0.000323874  Max(alpha.sludge) = 0.00195769
Applying the previous iteration correction flux
MULES: Correcting alpha.sludge
MULES: Correcting alpha.sludge
MULES: Correcting alpha.sludge
Phase-1 volume fraction = 0.001  Min(alpha.sludge) = 0.000320253  Max(alpha.sludge) = 0.00196352
DICPCG:  Solving for alpha.sludge, Initial residual = 0.00492144, Final residual = 8.61959e-08, No Iterations 3
Phase-1 volume fraction = 0.001  Min(alpha.sludge) = 0.00032179  Max(alpha.sludge) = 0.00196028
GAMG:  Solving for p_rgh, Initial residual = 2.54177e-06, Final residual = 4.99671e-07, No Iterations 1
time step continuity errors : sum local = 3.96186e-09, global = 3.04096e-22, cumulative = 3.60764e-18
GAMG:  Solving for p_rgh, Initial residual = 8.09705e-07, Final residual = 8.09705e-07, No Iterations 0
time step continuity errors : sum local = 6.36378e-09, global = -2.45609e-19, cumulative = 3.36203e-18
GAMG:  Solving for p_rgh, Initial residual = 1.08048e-06, Final residual = 3.95307e-07, No Iterations 1
time step continuity errors : sum local = 3.14805e-09, global = 1.35416e-19, cumulative = 3.49745e-18
DILUPBiCGStab:  Solving for epsilon, Initial residual = 9.70944e-07, Final residual = 9.70944e-07, No Iterations 0
DILUPBiCGStab:  Solving for k, Initial residual = 1.63986e-06, Final residual = 5.05562e-08, No Iterations 1
ExecutionTime = 18.26 s  ClockTime = 20 s

Courant Number mean: 0.232772 max: 1.02039
deltaT = 0.0113636
Time = 9.94318

PIMPLE: iteration 1
smoothSolver:  Solving for alpha.sludge, Initial residual = 0.00424921, Final residual = 8.02583e-07, No Iterations 2
Phase-1 volume fraction = 0.001  Min(alpha.sludge) = 0.000323835  Max(alpha.sludge) = 0.00195784
Applying the previous iteration correction flux
MULES: Correcting alpha.sludge
MULES: Correcting alpha.sludge
MULES: Correcting alpha.sludge
Phase-1 volume fraction = 0.001  Min(alpha.sludge) = 0.000320214  Max(alpha.sludge) = 0.00196367
DICPCG:  Solving for alpha.sludge, Initial residual = 0.00492101, Final residual = 8.62029e-08, No Iterations 3
Phase-1 volume fraction = 0.001  Min(alpha.sludge) = 0.000321751  Max(alpha.sludge) = 0.00196044
GAMG:  Solving for p_rgh, Initial residual = 2.2232e-06, Final residual = 5.10892e-07, No Iterations 1
time step continuity errors : sum local = 4.05031e-09, global = -2.7396e-20, cumulative = 3.47005e-18
GAMG:  Solving for p_rgh, Initial residual = 7.17315e-07, Final residual = 7.17315e-07, No Iterations 0
time step continuity errors : sum local = 5.63765e-09, global = 2.98763e-19, cumulative = 3.76881e-18
GAMG:  Solving for p_rgh, Initial residual = 9.57711e-07, Final residual = 9.57711e-07, No Iterations 0
time step continuity errors : sum local = 7.52702e-09, global = -2.02263e-19, cumulative = 3.56655e-18
DILUPBiCGStab:  Solving for epsilon, Initial residual = 1.05494e-06, Final residual = 2.64136e-08, No Iterations 1
DILUPBiCGStab:  Solving for k, Initial residual = 1.64347e-06, Final residual = 5.06675e-08, No Iterations 1
ExecutionTime = 18.28 s  ClockTime = 20 s

Courant Number mean: 0.232772 max: 1.02039
deltaT = 0.0113636
Time = 9.95455

PIMPLE: iteration 1
smoothSolver:  Solving for alpha.sludge, Initial residual = 0.00424882, Final residual = 8.02447e-07, No Iterations 2
Phase-1 volume fraction = 0.001  Min(alpha.sludge) = 0.000323796  Max(alpha.sludge) = 0.001958
Applying the previous iteration correction flux
MULES: Correcting alpha.sludge
MULES: Correcting alpha.sludge
MULES: Correcting alpha.sludge
Phase-1 volume fraction = 0.001  Min(alpha.sludge) = 0.000320176  Max(alpha.sludge) = 0.00196383
DICPCG:  Solving for alpha.sludge, Initial residual = 0.00492058, Final residual = 8.62094e-08, No Iterations 3
Phase-1 volume fraction = 0.001  Min(alpha.sludge) = 0.000321712  Max(alpha.sludge) = 0.00196059
GAMG:  Solving for p_rgh, Initial residual = 2.56595e-06, Final residual = 5.17432e-07, No Iterations 1
time step continuity errors : sum local = 4.09897e-09, global = -1.92142e-19, cumulative = 3.37441e-18
GAMG:  Solving for p_rgh, Initial residual = 8.16405e-07, Final residual = 8.16405e-07, No Iterations 0
time step continuity errors : sum local = 6.41644e-09, global = 3.5021e-19, cumulative = 3.72462e-18
GAMG:  Solving for p_rgh, Initial residual = 1.08446e-06, Final residual = 3.98379e-07, No Iterations 1
time step continuity errors : sum local = 3.17066e-09, global = -1.81257e-19, cumulative = 3.54336e-18
DILUPBiCGStab:  Solving for epsilon, Initial residual = 1.01337e-06, Final residual = 2.52314e-08, No Iterations 1
DILUPBiCGStab:  Solving for k, Initial residual = 1.61552e-06, Final residual = 4.96892e-08, No Iterations 1
ExecutionTime = 18.29 s  ClockTime = 20 s

Courant Number mean: 0.232772 max: 1.02039
deltaT = 0.0113636
Time = 9.96591

PIMPLE: iteration 1
smoothSolver:  Solving for alpha.sludge, Initial residual = 0.00424843, Final residual = 8.02309e-07, No Iterations 2
Phase-1 volume fraction = 0.001  Min(alpha.sludge) = 0.000323758  Max(alpha.sludge) = 0.00195815
Applying the previous iteration correction flux
MULES: Correcting alpha.sludge
MULES: Correcting alpha.sludge
MULES: Correcting alpha.sludge
Phase-1 volume fraction = 0.001  Min(alpha.sludge) = 0.000320137  Max(alpha.sludge) = 0.00196398
DICPCG:  Solving for alpha.sludge, Initial residual = 0.00492015, Final residual = 8.62159e-08, No Iterations 3
Phase-1 volume fraction = 0.001  Min(alpha.sludge) = 0.000321674  Max(alpha.sludge) = 0.00196074
GAMG:  Solving for p_rgh, Initial residual = 2.10775e-06, Final residual = 4.89799e-07, No Iterations 1
time step continuity errors : sum local = 3.88869e-09, global = 2.74077e-21, cumulative = 3.5461e-18
GAMG:  Solving for p_rgh, Initial residual = 6.86031e-07, Final residual = 6.86031e-07, No Iterations 0
time step continuity errors : sum local = 5.39178e-09, global = -1.8746e-19, cumulative = 3.35864e-18
GAMG:  Solving for p_rgh, Initial residual = 9.25354e-07, Final residual = 9.25354e-07, No Iterations 0
time step continuity errors : sum local = 7.27271e-09, global = -1.41814e-19, cumulative = 3.21683e-18
DILUPBiCGStab:  Solving for epsilon, Initial residual = 9.77274e-07, Final residual = 9.77274e-07, No Iterations 0
DILUPBiCGStab:  Solving for k, Initial residual = 1.62456e-06, Final residual = 4.99534e-08, No Iterations 1
ExecutionTime = 18.31 s  ClockTime = 20 s

Courant Number mean: 0.232772 max: 1.02039
deltaT = 0.0113636
Time = 9.97727

PIMPLE: iteration 1
smoothSolver:  Solving for alpha.sludge, Initial residual = 0.00424804, Final residual = 8.02174e-07, No Iterations 2
Phase-1 volume fraction = 0.001  Min(alpha.sludge) = 0.000323719  Max(alpha.sludge) = 0.0019583
Applying the previous iteration correction flux
MULES: Correcting alpha.sludge
MULES: Correcting alpha.sludge
MULES: Correcting alpha.sludge
Phase-1 volume fraction = 0.001  Min(alpha.sludge) = 0.000320099  Max(alpha.sludge) = 0.00196413
DICPCG:  Solving for alpha.sludge, Initial residual = 0.00491972, Final residual = 8.62229e-08, No Iterations 3
Phase-1 volume fraction = 0.001  Min(alpha.sludge) = 0.000321635  Max(alpha.sludge) = 0.00196089
GAMG:  Solving for p_rgh, Initial residual = 2.64008e-06, Final residual = 5.13161e-07, No Iterations 1
time step continuity errors : sum local = 4.07262e-09, global = -2.84751e-19, cumulative = 2.93208e-18
GAMG:  Solving for p_rgh, Initial residual = 8.23465e-07, Final residual = 8.23465e-07, No Iterations 0
time step continuity errors : sum local = 6.47192e-09, global = -1.63471e-19, cumulative = 2.76861e-18
GAMG:  Solving for p_rgh, Initial residual = 1.09106e-06, Final residual = 3.92361e-07, No Iterations 1
time step continuity errors : sum local = 3.12693e-09, global = 8.32211e-20, cumulative = 2.85183e-18
DILUPBiCGStab:  Solving for epsilon, Initial residual = 1.06095e-06, Final residual = 2.65785e-08, No Iterations 1
DILUPBiCGStab:  Solving for k, Initial residual = 1.62875e-06, Final residual = 5.01176e-08, No Iterations 1
ExecutionTime = 18.33 s  ClockTime = 20 s

Courant Number mean: 0.232772 max: 1.02039
deltaT = 0.0113636
Time = 9.98864

PIMPLE: iteration 1
smoothSolver:  Solving for alpha.sludge, Initial residual = 0.00424765, Final residual = 8.02037e-07, No Iterations 2
Phase-1 volume fraction = 0.001  Min(alpha.sludge) = 0.00032368  Max(alpha.sludge) = 0.00195846
Applying the previous iteration correction flux
MULES: Correcting alpha.sludge
MULES: Correcting alpha.sludge
MULES: Correcting alpha.sludge
Phase-1 volume fraction = 0.001  Min(alpha.sludge) = 0.00032006  Max(alpha.sludge) = 0.00196429
DICPCG:  Solving for alpha.sludge, Initial residual = 0.0049193, Final residual = 8.62294e-08, No Iterations 3
Phase-1 volume fraction = 0.001  Min(alpha.sludge) = 0.000321597  Max(alpha.sludge) = 0.00196105
GAMG:  Solving for p_rgh, Initial residual = 2.09829e-06, Final residual = 4.88811e-07, No Iterations 1
time step continuity errors : sum local = 3.88151e-09, global = -1.48816e-19, cumulative = 2.70301e-18
GAMG:  Solving for p_rgh, Initial residual = 6.84201e-07, Final residual = 6.84201e-07, No Iterations 0
time step continuity errors : sum local = 5.37739e-09, global = -1.04562e-19, cumulative = 2.59845e-18
GAMG:  Solving for p_rgh, Initial residual = 9.23934e-07, Final residual = 9.23934e-07, No Iterations 0
time step continuity errors : sum local = 7.26155e-09, global = 1.12703e-19, cumulative = 2.71115e-18
DILUPBiCGStab:  Solving for epsilon, Initial residual = 1.01737e-06, Final residual = 2.53377e-08, No Iterations 1
DILUPBiCGStab:  Solving for k, Initial residual = 1.59885e-06, Final residual = 4.90448e-08, No Iterations 1
ExecutionTime = 18.35 s  ClockTime = 20 s

Courant Number mean: 0.232771 max: 1.02039
deltaT = 0.0113636
Time = 10

PIMPLE: iteration 1
smoothSolver:  Solving for alpha.sludge, Initial residual = 0.00424726, Final residual = 8.01902e-07, No Iterations 2
Phase-1 volume fraction = 0.001  Min(alpha.sludge) = 0.000323642  Max(alpha.sludge) = 0.00195861
Applying the previous iteration correction flux
MULES: Correcting alpha.sludge
MULES: Correcting alpha.sludge
MULES: Correcting alpha.sludge
Phase-1 volume fraction = 0.001  Min(alpha.sludge) = 0.000320022  Max(alpha.sludge) = 0.00196444
DICPCG:  Solving for alpha.sludge, Initial residual = 0.00491887, Final residual = 8.62359e-08, No Iterations 3
Phase-1 volume fraction = 0.001  Min(alpha.sludge) = 0.000321558  Max(alpha.sludge) = 0.0019612
GAMG:  Solving for p_rgh, Initial residual = 2.50085e-06, Final residual = 4.93552e-07, No Iterations 1
time step continuity errors : sum local = 3.91908e-09, global = -2.26899e-19, cumulative = 2.48425e-18
GAMG:  Solving for p_rgh, Initial residual = 8.00312e-07, Final residual = 8.00312e-07, No Iterations 0
time step continuity errors : sum local = 6.28996e-09, global = -2.76026e-21, cumulative = 2.48149e-18
GAMG:  Solving for p_rgh, Initial residual = 1.06759e-06, Final residual = 3.91351e-07, No Iterations 1
time step continuity errors : sum local = 3.12126e-09, global = -2.31269e-20, cumulative = 2.45837e-18
DILUPBiCGStab:  Solving for epsilon, Initial residual = 9.79488e-07, Final residual = 9.79488e-07, No Iterations 0
DILUPBiCGStab:  Solving for k, Initial residual = 1.60797e-06, Final residual = 4.93418e-08, No Iterations 1
ExecutionTime = 18.39 s  ClockTime = 20 s

End

