/*---------------------------------------------------------------------------*\
| =========                 |                                                 |
| \\      /  F ield         | OpenFOAM: The Open Source CFD Toolbox           |
|  \\    /   O peration     | Version:  v1712                                 |
|   \\  /    A nd           | Web:      www.OpenFOAM.com                      |
|    \\/     M anipulation  |                                                 |
\*---------------------------------------------------------------------------*/
Build  : v1712
Arch   : "LSB;label=32;scalar=64"
Exec   : reconstructPar -allRegions
Date   : Jan 05 2018
Time   : 18:05:07
Host   : "inabower-PC"
PID    : 11388
I/O    : uncollated
Case   : /media/inabower/3C9455F89455B55C/inabower/tutorials-v1712/heatTransfer/chtMultiRegionFoam/windshieldCondensation
nProcs : 1
trapFpe: Floating point exception trapping enabled (FOAM_SIGFPE).
fileModificationChecking : Monitoring run-time modified files using timeStampMaster (fileModificationSkew 10)
allowSystemOperations : Allowing user-supplied system call operations

// * * * * * * * * * * * * * * * * * * * * * * * * * * * * * * * * * * * * * //
Create time

Reconstructing all regions in regionProperties



Reconstructing fields for mesh cabin

Time = 10

Reconstructing FV fields

    Reconstructing volScalarFields

        alphat
        nut
        p_rgh
        H2OThickness
        rho
        p
        T
        k
        H2O
        omega

    Reconstructing volVectorFields

        U

    Reconstructing surfaceScalarFields

        phi

Reconstructing point fields

No point fields

No lagrangian fields

No FA fields

Time = 20

Reconstructing FV fields

    Reconstructing volScalarFields

        alphat
        nut
        p_rgh
        H2OThickness
        rho
        p
        T
        k
        H2O
        omega

    Reconstructing volVectorFields

        U

    Reconstructing surfaceScalarFields

        phi

Reconstructing point fields

No point fields

No lagrangian fields

No FA fields

Time = 30

Reconstructing FV fields

    Reconstructing volScalarFields

        alphat
        nut
        p_rgh
        H2OThickness
        rho
        p
        T
        k
        H2O
        omega

    Reconstructing volVectorFields

        U

    Reconstructing surfaceScalarFields

        phi

Reconstructing point fields

No point fields

No lagrangian fields

No FA fields

Time = 40

Reconstructing FV fields

    Reconstructing volScalarFields

        alphat
        nut
        p_rgh
        H2OThickness
        rho
        p
        T
        k
        H2O
        omega

    Reconstructing volVectorFields

        U

    Reconstructing surfaceScalarFields

        phi

Reconstructing point fields

No point fields

No lagrangian fields

No FA fields

Time = 50

Reconstructing FV fields

    Reconstructing volScalarFields

        alphat
        nut
        p_rgh
        H2OThickness
        rho
        p
        T
        k
        H2O
        omega

    Reconstructing volVectorFields

        U

    Reconstructing surfaceScalarFields

        phi

Reconstructing point fields

No point fields

No lagrangian fields

No FA fields

Time = 60

Reconstructing FV fields

    Reconstructing volScalarFields

        alphat
        nut
        p_rgh
        H2OThickness
        rho
        p
        T
        k
        H2O
        omega

    Reconstructing volVectorFields

        U

    Reconstructing surfaceScalarFields

        phi

Reconstructing point fields

No point fields

No lagrangian fields

No FA fields

Time = 62.5

Reconstructing FV fields

    Reconstructing volScalarFields

        alphat
        nut
        p_rgh
        H2OThickness
        rho
        p
        T
        k
        H2O
        omega

    Reconstructing volVectorFields

        U

    Reconstructing surfaceScalarFields

        phi

Reconstructing point fields

No point fields

No lagrangian fields

No FA fields

Time = 65

Reconstructing FV fields

    Reconstructing volScalarFields

        alphat
        nut
        p_rgh
        H2OThickness
        rho
        p
        T
        k
        H2O
        omega

    Reconstructing volVectorFields

        U

    Reconstructing surfaceScalarFields

        phi

Reconstructing point fields

No point fields

No lagrangian fields

No FA fields

Time = 67.5

Reconstructing FV fields

    Reconstructing volScalarFields

        alphat
        nut
        p_rgh
        H2OThickness
        rho
        p
        T
        k
        H2O
        omega

    Reconstructing volVectorFields

        U

    Reconstructing surfaceScalarFields

        phi

Reconstructing point fields

No point fields

No lagrangian fields

No FA fields

Time = 70

Reconstructing FV fields

    Reconstructing volScalarFields

        alphat
        nut
        p_rgh
        H2OThickness
        rho
        p
        T
        k
        H2O
        omega

    Reconstructing volVectorFields

        U

    Reconstructing surfaceScalarFields

        phi

Reconstructing point fields

No point fields

No lagrangian fields

No FA fields

Time = 72.5

Reconstructing FV fields

    Reconstructing volScalarFields

        alphat
        nut
        p_rgh
        H2OThickness
        rho
        p
        T
        k
        H2O
        omega

    Reconstructing volVectorFields

        U

    Reconstructing surfaceScalarFields

        phi

Reconstructing point fields

No point fields

No lagrangian fields

No FA fields

Time = 75

Reconstructing FV fields

    Reconstructing volScalarFields

        alphat
        nut
        p_rgh
        H2OThickness
        rho
        p
        T
        k
        H2O
        omega

    Reconstructing volVectorFields

        U

    Reconstructing surfaceScalarFields

        phi

Reconstructing point fields

No point fields

No lagrangian fields

No FA fields

Time = 77.5

Reconstructing FV fields

    Reconstructing volScalarFields

        alphat
        nut
        p_rgh
        H2OThickness
        rho
        p
        T
        k
        H2O
        omega

    Reconstructing volVectorFields

        U

    Reconstructing surfaceScalarFields

        phi

Reconstructing point fields

No point fields

No lagrangian fields

No FA fields

Time = 80

Reconstructing FV fields

    Reconstructing volScalarFields

        alphat
        nut
        p_rgh
        H2OThickness
        rho
        p
        T
        k
        H2O
        omega

    Reconstructing volVectorFields

        U

    Reconstructing surfaceScalarFields

        phi

Reconstructing point fields

No point fields

No lagrangian fields

No FA fields

Time = 82.5

Reconstructing FV fields

    Reconstructing volScalarFields

        alphat
        nut
        p_rgh
        H2OThickness
        rho
        p
        T
        k
        H2O
        omega

    Reconstructing volVectorFields

        U

    Reconstructing surfaceScalarFields

        phi

Reconstructing point fields

No point fields

No lagrangian fields

No FA fields

Time = 85

Reconstructing FV fields

    Reconstructing volScalarFields

        alphat
        nut
        p_rgh
        H2OThickness
        rho
        p
        T
        k
        H2O
        omega

    Reconstructing volVectorFields

        U

    Reconstructing surfaceScalarFields

        phi

Reconstructing point fields

No point fields

No lagrangian fields

No FA fields

Time = 87.5

Reconstructing FV fields

    Reconstructing volScalarFields

        alphat
        nut
        p_rgh
        H2OThickness
        rho
        p
        T
        k
        H2O
        omega

    Reconstructing volVectorFields

        U

    Reconstructing surfaceScalarFields

        phi

Reconstructing point fields

No point fields

No lagrangian fields

No FA fields

Time = 90

Reconstructing FV fields

    Reconstructing volScalarFields

        alphat
        nut
        p_rgh
        H2OThickness
        rho
        p
        T
        k
        H2O
        omega

    Reconstructing volVectorFields

        U

    Reconstructing surfaceScalarFields

        phi

Reconstructing point fields

No point fields

No lagrangian fields

No FA fields



Reconstructing fields for mesh windshield

Time = 10

Reconstructing FV fields

    Reconstructing volScalarFields

        p
        T

Reconstructing point fields

No point fields

No lagrangian fields

No FA fields

Time = 20

Reconstructing FV fields

    Reconstructing volScalarFields

        p
        T

Reconstructing point fields

No point fields

No lagrangian fields

No FA fields

Time = 30

Reconstructing FV fields

    Reconstructing volScalarFields

        p
        T

Reconstructing point fields

No point fields

No lagrangian fields

No FA fields

Time = 40

Reconstructing FV fields

    Reconstructing volScalarFields

        p
        T

Reconstructing point fields

No point fields

No lagrangian fields

No FA fields

Time = 50

Reconstructing FV fields

    Reconstructing volScalarFields

        p
        T

Reconstructing point fields

No point fields

No lagrangian fields

No FA fields

Time = 60

Reconstructing FV fields

    Reconstructing volScalarFields

        p
        T

Reconstructing point fields

No point fields

No lagrangian fields

No FA fields

Time = 62.5

Reconstructing FV fields

    Reconstructing volScalarFields

        p
        T

Reconstructing point fields

No point fields

No lagrangian fields

No FA fields

Time = 65

Reconstructing FV fields

    Reconstructing volScalarFields

        p
        T

Reconstructing point fields

No point fields

No lagrangian fields

No FA fields

Time = 67.5

Reconstructing FV fields

    Reconstructing volScalarFields

        p
        T

Reconstructing point fields

No point fields

No lagrangian fields

No FA fields

Time = 70

Reconstructing FV fields

    Reconstructing volScalarFields

        p
        T

Reconstructing point fields

No point fields

No lagrangian fields

No FA fields

Time = 72.5

Reconstructing FV fields

    Reconstructing volScalarFields

        p
        T

Reconstructing point fields

No point fields

No lagrangian fields

No FA fields

Time = 75

Reconstructing FV fields

    Reconstructing volScalarFields

        p
        T

Reconstructing point fields

No point fields

No lagrangian fields

No FA fields

Time = 77.5

Reconstructing FV fields

    Reconstructing volScalarFields

        p
        T

Reconstructing point fields

No point fields

No lagrangian fields

No FA fields

Time = 80

Reconstructing FV fields

    Reconstructing volScalarFields

        p
        T

Reconstructing point fields

No point fields

No lagrangian fields

No FA fields

Time = 82.5

Reconstructing FV fields

    Reconstructing volScalarFields

        p
        T

Reconstructing point fields

No point fields

No lagrangian fields

No FA fields

Time = 85

Reconstructing FV fields

    Reconstructing volScalarFields

        p
        T

Reconstructing point fields

No point fields

No lagrangian fields

No FA fields

Time = 87.5

Reconstructing FV fields

    Reconstructing volScalarFields

        p
        T

Reconstructing point fields

No point fields

No lagrangian fields

No FA fields

Time = 90

Reconstructing FV fields

    Reconstructing volScalarFields

        p
        T

Reconstructing point fields

No point fields

No lagrangian fields

No FA fields


End

