/*---------------------------------------------------------------------------*\
| =========                 |                                                 |
| \\      /  F ield         | OpenFOAM: The Open Source CFD Toolbox           |
|  \\    /   O peration     | Version:  v1712                                 |
|   \\  /    A nd           | Web:      www.OpenFOAM.com                      |
|    \\/     M anipulation  |                                                 |
\*---------------------------------------------------------------------------*/
Build  : v1712
Arch   : "LSB;label=32;scalar=64"
Exec   : chtMultiRegionFoam -parallel
Date   : Jan 05 2018
Time   : 17:49:25
Host   : "inabower-PC"
PID    : 11240
I/O    : uncollated
Case   : /media/inabower/3C9455F89455B55C/inabower/tutorials-v1712/heatTransfer/chtMultiRegionFoam/windshieldCondensation
nProcs : 4
Hosts  :
(
    (inabower-PC 4)
)
Pstream initialized with:
    floatTransfer      : 0
    nProcsSimpleSum    : 0
    commsType          : nonBlocking
    polling iterations : 0
trapFpe: Floating point exception trapping enabled (FOAM_SIGFPE).
fileModificationChecking : Monitoring run-time modified files using timeStampMaster (fileModificationSkew 10)
allowSystemOperations : Allowing user-supplied system call operations

// * * * * * * * * * * * * * * * * * * * * * * * * * * * * * * * * * * * * * //
Create time

Create fluid mesh for region cabin for time = 0

Create solid mesh for region windshield for time = 0

*** Reading fluid mesh thermophysical properties for region cabin

    Adding to thermoFluid

Selecting thermodynamics package 
{
    type            heRhoThermo;
    mixture         pureMixture;
    transport       const;
    thermo          hConst;
    equationOfState incompressiblePerfectGas;
    specie          specie;
    energy          sensibleEnthalpy;
}

    Adding to rhoFluid

    Adding to UFluid

    Adding to phiFluid

    Adding to gFluid

    Adding to hRefFluid

    Adding to ghFluid

    Adding to ghfFluid

    Adding to turbulence

Selecting turbulence model type RAS
Selecting RAS turbulence model kOmegaSST
Selecting patchDistMethod meshWave
RAS
{
    RASModel        kOmegaSST;
    turbulence      on;
    printCoeffs     on;
    alphaK1         0.85;
    alphaK2         1;
    alphaOmega1     0.5;
    alphaOmega2     0.856;
    gamma1          0.5555555556;
    gamma2          0.44;
    beta1           0.075;
    beta2           0.0828;
    betaStar        0.09;
    a1              0.31;
    b1              1;
    c1              10;
    F3              false;
    decayControl    false;
    kInf            0;
    omegaInf        0;
}

Selecting radiationModel none
    Adding to KFluid

    Adding to dpdtFluid

    Adding MRF

No MRF models present

    Adding fvOptions

Creating finite volume options from "system/fvOptions"

Selecting finite volume options type directionalPressureGradientExplicitSource
    Source: airDeflection
    - selecting cells using cellZone c1Zone
    - selected 70 cell(s) with volume 7.01305841e-05
    Initial pressure gradient = 0()

*** Reading solid mesh thermophysical properties for region windshield

    Adding to thermos

Selecting thermodynamics package 
{
    type            heSolidThermo;
    mixture         pureMixture;
    transport       constIso;
    thermo          hConst;
    equationOfState rhoConst;
    specie          specie;
    energy          sensibleEnthalpy;
}

    Adding to radiations

Selecting radiationModel none
    Adding fvOptions

No finite volume options present

Region: cabin Courant Number mean: 0 max: 0
Region: windshield Diffusion Number mean: 20.15404074 max: 700.7380062
timeActivatedFileUpdate fileUpdate output:
    time vs file list:
    1	"/media/inabower/3C9455F89455B55C/inabower/tutorials-v1712/heatTransfer/chtMultiRegionFoam/windshieldCondensation/system/solverControls.0"
    5	"/media/inabower/3C9455F89455B55C/inabower/tutorials-v1712/heatTransfer/chtMultiRegionFoam/windshieldCondensation/system/solverControls.5"
    20	"/media/inabower/3C9455F89455B55C/inabower/tutorials-v1712/heatTransfer/chtMultiRegionFoam/windshieldCondensation/system/solverControls.20"
    60	"/media/inabower/3C9455F89455B55C/inabower/tutorials-v1712/heatTransfer/chtMultiRegionFoam/windshieldCondensation/system/solverControls.60"
deltaT = 0.01
Region: cabin Courant Number mean: 0 max: 0
Region: windshield Diffusion Number mean: 20.15404074 max: 700.7380062
deltaT = 0.01201923077
Time = 0.0120192


Solving for fluid region cabin
diagonal:  Solving for rho, Initial residual = 0, Final residual = 0, No Iterations 0
smoothSolver:  Solving for h, Initial residual = 1, Final residual = 5.969445469e-06, No Iterations 5
Min/max T:260.0015206 300
GAMG:  Solving for p_rgh, Initial residual = 0.7844066858, Final residual = 0.03176431701, No Iterations 3
diagonal:  Solving for rho, Initial residual = 0, Final residual = 0, No Iterations 0
time step continuity errors (cabin): sum local = 0.001324593238, global = 0.0002010463405, cumulative = 0.0002010463405
GAMG:  Solving for p_rgh, Initial residual = 0.1498899216, Final residual = 7.969635668e-07, No Iterations 29
diagonal:  Solving for rho, Initial residual = 0, Final residual = 0, No Iterations 0
time step continuity errors (cabin): sum local = 1.815646718e-08, global = -6.561962437e-09, cumulative = 0.0002010397785
smoothSolver:  Solving for omega, Initial residual = 0.01633865881, Final residual = 8.694225622e-06, No Iterations 2
smoothSolver:  Solving for k, Initial residual = 1, Final residual = 2.502558077e-06, No Iterations 5

Solving for solid region windshield
DICPCG:  Solving for h, Initial residual = 0.9999999994, Final residual = 6.616795155e-07, No Iterations 26
Min/max T:260.001114 260.0497668
ExecutionTime = 1.07 s  ClockTime = 1 s

scalarTransport execute: H2O
smoothSolver:  Solving for H2O, Initial residual = 0.9999805144, Final residual = 0.0009496449923, No Iterations 2

Region: cabin Courant Number mean: 0.008319850592 max: 0.2652390021
Region: windshield Diffusion Number mean: 24.22360665 max: 842.2331806
deltaT = 0.01446500447
Time = 0.0264842


Solving for fluid region cabin
diagonal:  Solving for rho, Initial residual = 0, Final residual = 0, No Iterations 0
smoothSolver:  Solving for h, Initial residual = 0.1501920533, Final residual = 2.07525373e-06, No Iterations 2
Min/max T:260.0371789 300.0000032
GAMG:  Solving for p_rgh, Initial residual = 0.2767641049, Final residual = 0.007932651898, No Iterations 3
diagonal:  Solving for rho, Initial residual = 0, Final residual = 0, No Iterations 0
time step continuity errors (cabin): sum local = 0.0001459089535, global = 3.227374951e-05, cumulative = 0.000233313528
GAMG:  Solving for p_rgh, Initial residual = 0.1892468555, Final residual = 7.399248081e-07, No Iterations 30
diagonal:  Solving for rho, Initial residual = 0, Final residual = 0, No Iterations 0
time step continuity errors (cabin): sum local = 8.80638048e-09, global = 3.039448136e-09, cumulative = 0.0002333165675
smoothSolver:  Solving for omega, Initial residual = 0.001783939128, Final residual = 9.047351817e-06, No Iterations 1
smoothSolver:  Solving for k, Initial residual = 0.2641608245, Final residual = 7.308916867e-07, No Iterations 3

Solving for solid region windshield
DICPCG:  Solving for h, Initial residual = 0.4337773072, Final residual = 7.849056092e-07, No Iterations 26
Min/max T:260.0067524 260.1333583
ExecutionTime = 1.6 s  ClockTime = 1 s

scalarTransport execute: H2O
smoothSolver:  Solving for H2O, Initial residual = 0.9998604525, Final residual = 0.001374590454, No Iterations 1

Region: cabin Courant Number mean: 0.01267492383 max: 0.3403904588
Region: windshield Diffusion Number mean: 29.15282894 max: 1013.617839
deltaT = 0.01729731304
Time = 0.0437815


Solving for fluid region cabin
diagonal:  Solving for rho, Initial residual = 0, Final residual = 0, No Iterations 0
smoothSolver:  Solving for h, Initial residual = 0.09607381849, Final residual = 2.018563465e-06, No Iterations 2
Min/max T:260.0946379 300.0000093
GAMG:  Solving for p_rgh, Initial residual = 0.3441950271, Final residual = 0.008699615141, No Iterations 3
diagonal:  Solving for rho, Initial residual = 0, Final residual = 0, No Iterations 0
time step continuity errors (cabin): sum local = 8.534812802e-05, global = 3.731531547e-07, cumulative = 0.0002336897206
GAMG:  Solving for p_rgh, Initial residual = 0.116397774, Final residual = 8.040281463e-07, No Iterations 24
diagonal:  Solving for rho, Initial residual = 0, Final residual = 0, No Iterations 0
time step continuity errors (cabin): sum local = 8.402542309e-09, global = 3.07495959e-09, cumulative = 0.0002336927956
smoothSolver:  Solving for omega, Initial residual = 0.00200066852, Final residual = 1.744129291e-07, No Iterations 2
smoothSolver:  Solving for k, Initial residual = 0.1972716418, Final residual = 6.883804035e-07, No Iterations 3

Solving for solid region windshield
DICPCG:  Solving for h, Initial residual = 0.2635415799, Final residual = 6.491797033e-07, No Iterations 26
Min/max T:260.0199158 260.1907164
ExecutionTime = 2.05 s  ClockTime = 2 s

scalarTransport execute: H2O
smoothSolver:  Solving for H2O, Initial residual = 0.1602719771, Final residual = 0.0002844238645, No Iterations 1

Region: cabin Courant Number mean: 0.01684953734 max: 0.4259462818
Region: windshield Diffusion Number mean: 34.86107516 max: 1212.088465
deltaT = 0.02081541061
Time = 0.064597


Solving for fluid region cabin
diagonal:  Solving for rho, Initial residual = 0, Final residual = 0, No Iterations 0
smoothSolver:  Solving for h, Initial residual = 0.06849051239, Final residual = 2.762277743e-06, No Iterations 2
Min/max T:260.1334629 300.0000225
GAMG:  Solving for p_rgh, Initial residual = 0.2230245509, Final residual = 0.009030302717, No Iterations 2
diagonal:  Solving for rho, Initial residual = 0, Final residual = 0, No Iterations 0
time step continuity errors (cabin): sum local = 0.0001270966225, global = 1.997432131e-06, cumulative = 0.0002356902277
GAMG:  Solving for p_rgh, Initial residual = 0.04366449982, Final residual = 9.790588782e-07, No Iterations 22
diagonal:  Solving for rho, Initial residual = 0, Final residual = 0, No Iterations 0
time step continuity errors (cabin): sum local = 1.522622204e-08, global = -5.076008791e-09, cumulative = 0.0002356851517
smoothSolver:  Solving for omega, Initial residual = 0.002195217328, Final residual = 3.046226483e-07, No Iterations 2
smoothSolver:  Solving for k, Initial residual = 0.1553110933, Final residual = 8.832671369e-07, No Iterations 3

Solving for solid region windshield
DICPCG:  Solving for h, Initial residual = 0.2473015791, Final residual = 8.159559615e-07, No Iterations 26
Min/max T:260.0418155 260.2459095
ExecutionTime = 2.48 s  ClockTime = 2 s

scalarTransport execute: H2O
smoothSolver:  Solving for H2O, Initial residual = 0.09417302011, Final residual = 0.0002109081701, No Iterations 1

Region: cabin Courant Number mean: 0.021121075 max: 0.5161840822
Region: windshield Diffusion Number mean: 41.95146333 max: 1458.614933
deltaT = 0.02485105144
Time = 0.089448


Solving for fluid region cabin
diagonal:  Solving for rho, Initial residual = 0, Final residual = 0, No Iterations 0
smoothSolver:  Solving for h, Initial residual = 0.05600193108, Final residual = 3.823996019e-06, No Iterations 2
Min/max T:260.168955 300.0000411
GAMG:  Solving for p_rgh, Initial residual = 0.164047163, Final residual = 0.004912088824, No Iterations 2
diagonal:  Solving for rho, Initial residual = 0, Final residual = 0, No Iterations 0
time step continuity errors (cabin): sum local = 0.0001124405882, global = -3.848145273e-08, cumulative = 0.0002356466703
GAMG:  Solving for p_rgh, Initial residual = 0.01775613768, Final residual = 7.857275336e-07, No Iterations 18
diagonal:  Solving for rho, Initial residual = 0, Final residual = 0, No Iterations 0
time step continuity errors (cabin): sum local = 2.025751887e-08, global = -7.08138189e-09, cumulative = 0.0002356395889
smoothSolver:  Solving for omega, Initial residual = 0.002317422925, Final residual = 4.921853931e-07, No Iterations 2
smoothSolver:  Solving for k, Initial residual = 0.1214741587, Final residual = 1.212943352e-06, No Iterations 3

Solving for solid region windshield
DICPCG:  Solving for h, Initial residual = 0.244829647, Final residual = 4.94042205e-07, No Iterations 31
Min/max T:260.0719567 260.3041009
ExecutionTime = 2.91 s  ClockTime = 3 s

scalarTransport execute: H2O
smoothSolver:  Solving for H2O, Initial residual = 0.06922005892, Final residual = 0.0001882654826, No Iterations 1

Region: cabin Courant Number mean: 0.0256353629 max: 0.5888280451
Region: windshield Diffusion Number mean: 50.0849103 max: 1741.407624
deltaT = 0.02975990111
Time = 0.119208


Solving for fluid region cabin
diagonal:  Solving for rho, Initial residual = 0, Final residual = 0, No Iterations 0
smoothSolver:  Solving for h, Initial residual = 0.0478339711, Final residual = 5.471110309e-06, No Iterations 2
Min/max T:260.2050327 300.0000689
GAMG:  Solving for p_rgh, Initial residual = 0.1271494961, Final residual = 0.003094933864, No Iterations 2
diagonal:  Solving for rho, Initial residual = 0, Final residual = 0, No Iterations 0
time step continuity errors (cabin): sum local = 0.0001235962785, global = 1.404512285e-06, cumulative = 0.0002370441012
GAMG:  Solving for p_rgh, Initial residual = 0.009695719424, Final residual = 7.879799086e-07, No Iterations 15
diagonal:  Solving for rho, Initial residual = 0, Final residual = 0, No Iterations 0
time step continuity errors (cabin): sum local = 3.502772537e-08, global = 1.042123603e-08, cumulative = 0.0002370545224
smoothSolver:  Solving for omega, Initial residual = 0.002439014855, Final residual = 7.449986996e-07, No Iterations 2
smoothSolver:  Solving for k, Initial residual = 0.1028454531, Final residual = 1.972696009e-06, No Iterations 3

Solving for solid region windshield
DICPCG:  Solving for h, Initial residual = 0.2502854736, Final residual = 7.847670021e-07, No Iterations 31
Min/max T:260.109676 260.3685492
ExecutionTime = 3.31 s  ClockTime = 3 s

scalarTransport execute: H2O
smoothSolver:  Solving for H2O, Initial residual = 0.05646639132, Final residual = 0.0001810444725, No Iterations 1

Region: cabin Courant Number mean: 0.03073337597 max: 0.7133154753
Region: windshield Diffusion Number mean: 59.97822592 max: 2085.389377
deltaT = 0.03553421028
Time = 0.154742


Solving for fluid region cabin
diagonal:  Solving for rho, Initial residual = 0, Final residual = 0, No Iterations 0
smoothSolver:  Solving for h, Initial residual = 0.04226628387, Final residual = 7.525207415e-06, No Iterations 2
Min/max T:260.2441375 300.0000981
GAMG:  Solving for p_rgh, Initial residual = 0.1066331699, Final residual = 0.002371566337, No Iterations 2
diagonal:  Solving for rho, Initial residual = 0, Final residual = 0, No Iterations 0
time step continuity errors (cabin): sum local = 0.0001623711208, global = 3.394085696e-07, cumulative = 0.000237393931
GAMG:  Solving for p_rgh, Initial residual = 0.007753188241, Final residual = 9.513478605e-07, No Iterations 11
diagonal:  Solving for rho, Initial residual = 0, Final residual = 0, No Iterations 0
time step continuity errors (cabin): sum local = 7.174998758e-08, global = 1.836336453e-08, cumulative = 0.0002374122943
smoothSolver:  Solving for omega, Initial residual = 0.002607067836, Final residual = 1.023504738e-06, No Iterations 2
smoothSolver:  Solving for k, Initial residual = 0.1001780646, Final residual = 3.633987233e-06, No Iterations 3

Solving for solid region windshield
DICPCG:  Solving for h, Initial residual = 0.2564711167, Final residual = 8.399172971e-07, No Iterations 33
Min/max T:260.1542514 260.4411423
ExecutionTime = 3.7 s  ClockTime = 3 s

scalarTransport execute: H2O
smoothSolver:  Solving for H2O, Initial residual = 0.04848929647, Final residual = 0.0001852348607, No Iterations 1

Region: cabin Courant Number mean: 0.03650102707 max: 0.8483215659
Region: windshield Diffusion Number mean: 71.61579214 max: 2490.017166
deltaT = 0.04264105233
Time = 0.197383


Solving for fluid region cabin
diagonal:  Solving for rho, Initial residual = 0, Final residual = 0, No Iterations 0
smoothSolver:  Solving for h, Initial residual = 0.03840678365, Final residual = 8.167683155e-07, No Iterations 3
Min/max T:260.2877447 300.0001213
GAMG:  Solving for p_rgh, Initial residual = 0.09348542568, Final residual = 0.001910851081, No Iterations 2
diagonal:  Solving for rho, Initial residual = 0, Final residual = 0, No Iterations 0
time step continuity errors (cabin): sum local = 0.0002231026914, global = 1.148496542e-06, cumulative = 0.0002385607909
GAMG:  Solving for p_rgh, Initial residual = 0.007182659107, Final residual = 9.177353745e-07, No Iterations 8
diagonal:  Solving for rho, Initial residual = 0, Final residual = 0, No Iterations 0
time step continuity errors (cabin): sum local = 1.167350366e-07, global = 4.10915714e-08, cumulative = 0.0002386018824
smoothSolver:  Solving for omega, Initial residual = 0.002824331762, Final residual = 1.478730404e-06, No Iterations 2
smoothSolver:  Solving for k, Initial residual = 0.09704784203, Final residual = 7.288534346e-06, No Iterations 3

Solving for solid region windshield
DICPCG:  Solving for h, Initial residual = 0.2619489142, Final residual = 4.81722261e-07, No Iterations 36
Min/max T:260.2055515 260.5245582
ExecutionTime = 4.08 s  ClockTime = 4 s

scalarTransport execute: H2O
smoothSolver:  Solving for H2O, Initial residual = 0.04329446817, Final residual = 0.0002076858445, No Iterations 1

Region: cabin Courant Number mean: 0.04352945801 max: 1.007059356
Region: windshield Diffusion Number mean: 85.93895057 max: 2988.020599
deltaT = 0.0511692628
Time = 0.248552


Solving for fluid region cabin
diagonal:  Solving for rho, Initial residual = 0, Final residual = 0, No Iterations 0
smoothSolver:  Solving for h, Initial residual = 0.03541207325, Final residual = 2.328337964e-06, No Iterations 3
Min/max T:260.3344528 300.0001314
GAMG:  Solving for p_rgh, Initial residual = 0.08255765156, Final residual = 0.001629047042, No Iterations 2
diagonal:  Solving for rho, Initial residual = 0, Final residual = 0, No Iterations 0
time step continuity errors (cabin): sum local = 0.000318069097, global = 1.010249952e-06, cumulative = 0.0002396121324
GAMG:  Solving for p_rgh, Initial residual = 0.006990952125, Final residual = 6.848600848e-07, No Iterations 8
diagonal:  Solving for rho, Initial residual = 0, Final residual = 0, No Iterations 0
time step continuity errors (cabin): sum local = 1.44336908e-07, global = 1.89016945e-08, cumulative = 0.0002396310341
smoothSolver:  Solving for omega, Initial residual = 0.003153714538, Final residual = 2.496874705e-06, No Iterations 2
smoothSolver:  Solving for k, Initial residual = 0.08533629277, Final residual = 2.138281071e-06, No Iterations 4

Solving for solid region windshield
DICPCG:  Solving for h, Initial residual = 0.2663169311, Final residual = 8.992784281e-07, No Iterations 38
Min/max T:260.2633517 260.6222494
ExecutionTime = 4.48 s  ClockTime = 4 s

scalarTransport execute: H2O
smoothSolver:  Solving for H2O, Initial residual = 0.03953533488, Final residual = 0.0002999576163, No Iterations 1

Region: cabin Courant Number mean: 0.05244647877 max: 1.227735397
Region: windshield Diffusion Number mean: 103.1267407 max: 3585.624719
deltaT = 0.06084993414
Time = 0.309402


Solving for fluid region cabin
diagonal:  Solving for rho, Initial residual = 0, Final residual = 0, No Iterations 0
smoothSolver:  Solving for h, Initial residual = 0.03273795439, Final residual = 9.689862963e-06, No Iterations 3
Min/max T:260.3843001 300.0001109
GAMG:  Solving for p_rgh, Initial residual = 0.07473162798, Final residual = 0.001431752236, No Iterations 2
diagonal:  Solving for rho, Initial residual = 0, Final residual = 0, No Iterations 0
time step continuity errors (cabin): sum local = 0.0004407535076, global = 1.565140078e-06, cumulative = 0.0002411961742
GAMG:  Solving for p_rgh, Initial residual = 0.00673722592, Final residual = 6.390504682e-07, No Iterations 8
diagonal:  Solving for rho, Initial residual = 0, Final residual = 0, No Iterations 0
time step continuity errors (cabin): sum local = 2.105525469e-07, global = -3.787806005e-09, cumulative = 0.0002411923864
smoothSolver:  Solving for omega, Initial residual = 0.003862613302, Final residual = 2.991397134e-06, No Iterations 3
smoothSolver:  Solving for k, Initial residual = 0.06752365324, Final residual = 4.574854855e-06, No Iterations 4

Solving for solid region windshield
DICPCG:  Solving for h, Initial residual = 0.268889885, Final residual = 5.352374698e-07, No Iterations 41
Min/max T:260.3267042 260.7374881
ExecutionTime = 4.89 s  ClockTime = 5 s

scalarTransport execute: H2O
smoothSolver:  Solving for H2O, Initial residual = 0.03671367439, Final residual = 1.703289692e-05, No Iterations 2

Region: cabin Courant Number mean: 0.06424779311 max: 1.579340498
Region: windshield Diffusion Number mean: 122.6372051 max: 4263.986153
deltaT = 0.07301992097
Time = 0.382422


Solving for fluid region cabin
diagonal:  Solving for rho, Initial residual = 0, Final residual = 0, No Iterations 0
smoothSolver:  Solving for h, Initial residual = 0.03142414361, Final residual = 5.204982129e-06, No Iterations 4
Min/max T:260.438399 300.0000763
GAMG:  Solving for p_rgh, Initial residual = 0.0665062477, Final residual = 0.00128349402, No Iterations 2
diagonal:  Solving for rho, Initial residual = 0, Final residual = 0, No Iterations 0
time step continuity errors (cabin): sum local = 0.0005632876169, global = 1.696589973e-06, cumulative = 0.0002428889763
GAMG:  Solving for p_rgh, Initial residual = 0.00669889626, Final residual = 7.957415099e-07, No Iterations 8
diagonal:  Solving for rho, Initial residual = 0, Final residual = 0, No Iterations 0
time step continuity errors (cabin): sum local = 3.706513993e-07, global = 2.227829419e-08, cumulative = 0.0002429112546
smoothSolver:  Solving for omega, Initial residual = 0.005329339751, Final residual = 4.076484942e-06, No Iterations 4
smoothSolver:  Solving for k, Initial residual = 0.08880534866, Final residual = 4.714346239e-06, No Iterations 5

Solving for solid region windshield
DICPCG:  Solving for h, Initial residual = 0.2714642332, Final residual = 9.9989731e-07, No Iterations 41
Min/max T:260.3952618 260.8751804
ExecutionTime = 5.27 s  ClockTime = 5 s

scalarTransport execute: H2O
smoothSolver:  Solving for H2O, Initial residual = 0.03435231736, Final residual = 3.923811659e-05, No Iterations 2

Region: cabin Courant Number mean: 0.0808775909 max: 2.349865389
Region: windshield Diffusion Number mean: 147.1646462 max: 5116.783383
deltaT = 0.0882324045
Time = 0.470655


Solving for fluid region cabin
diagonal:  Solving for rho, Initial residual = 0, Final residual = 0, No Iterations 0
smoothSolver:  Solving for h, Initial residual = 0.03094548274, Final residual = 7.106131615e-06, No Iterations 4
Min/max T:260.4963524 300.0000372
GAMG:  Solving for p_rgh, Initial residual = 0.05951736179, Final residual = 0.001269264408, No Iterations 2
diagonal:  Solving for rho, Initial residual = 0, Final residual = 0, No Iterations 0
time step continuity errors (cabin): sum local = 0.0007440561247, global = 1.927314769e-06, cumulative = 0.0002448385694
GAMG:  Solving for p_rgh, Initial residual = 0.006472729099, Final residual = 8.373939176e-07, No Iterations 8
diagonal:  Solving for rho, Initial residual = 0, Final residual = 0, No Iterations 0
time step continuity errors (cabin): sum local = 5.155208848e-07, global = 1.420504328e-07, cumulative = 0.0002449806198
smoothSolver:  Solving for omega, Initial residual = 0.008018300604, Final residual = 3.78251829e-06, No Iterations 5
smoothSolver:  Solving for k, Initial residual = 0.1286793386, Final residual = 3.886514751e-06, No Iterations 6

Solving for solid region windshield
DICPCG:  Solving for h, Initial residual = 0.2732757498, Final residual = 8.934028299e-07, No Iterations 44
Min/max T:260.4680422 261.0386406
ExecutionTime = 5.69 s  ClockTime = 5 s

scalarTransport execute: H2O
smoothSolver:  Solving for H2O, Initial residual = 0.03498925211, Final residual = 8.297204856e-05, No Iterations 2

Region: cabin Courant Number mean: 0.1040346996 max: 2.736773747
Region: windshield Diffusion Number mean: 177.8239475 max: 6182.779921
deltaT = 0.1068076476
Time = 0.577462


Solving for fluid region cabin
diagonal:  Solving for rho, Initial residual = 0, Final residual = 0, No Iterations 0
smoothSolver:  Solving for h, Initial residual = 0.03064557624, Final residual = 6.016443936e-06, No Iterations 6
Min/max T:260.5574089 300.0000379
GAMG:  Solving for p_rgh, Initial residual = 0.05521998647, Final residual = 0.00115424114, No Iterations 2
diagonal:  Solving for rho, Initial residual = 0, Final residual = 0, No Iterations 0
time step continuity errors (cabin): sum local = 0.0008697584443, global = 4.653234313e-06, cumulative = 0.0002496338541
GAMG:  Solving for p_rgh, Initial residual = 0.008311584869, Final residual = 8.206458421e-07, No Iterations 7
diagonal:  Solving for rho, Initial residual = 0, Final residual = 0, No Iterations 0
time step continuity errors (cabin): sum local = 6.400381925e-07, global = 9.959863147e-08, cumulative = 0.0002497334528
smoothSolver:  Solving for omega, Initial residual = 0.01082486311, Final residual = 6.049800228e-06, No Iterations 5
smoothSolver:  Solving for k, Initial residual = 0.1663655524, Final residual = 9.921583557e-06, No Iterations 7

Solving for solid region windshield
DICPCG:  Solving for h, Initial residual = 0.2728399689, Final residual = 6.119825179e-07, No Iterations 49
Min/max T:260.5438978 261.2291642
ExecutionTime = 6.07 s  ClockTime = 6 s

scalarTransport execute: H2O
smoothSolver:  Solving for H2O, Initial residual = 0.03691646466, Final residual = 0.0001739483826, No Iterations 2

Region: cabin Courant Number mean: 0.1333147749 max: 3.246859891
Region: windshield Diffusion Number mean: 215.260568 max: 7484.4178
deltaT = 0.1281691771
Time = 0.705632


Solving for fluid region cabin
diagonal:  Solving for rho, Initial residual = 0, Final residual = 0, No Iterations 0
smoothSolver:  Solving for h, Initial residual = 0.02955189576, Final residual = 7.8968048e-06, No Iterations 6
Min/max T:260.6217666 300.0000384
GAMG:  Solving for p_rgh, Initial residual = 0.05378989029, Final residual = 0.0009013009762, No Iterations 2
diagonal:  Solving for rho, Initial residual = 0, Final residual = 0, No Iterations 0
time step continuity errors (cabin): sum local = 0.0008613226028, global = 7.940230571e-06, cumulative = 0.0002576736833
GAMG:  Solving for p_rgh, Initial residual = 0.01283041777, Final residual = 7.002486359e-07, No Iterations 8
diagonal:  Solving for rho, Initial residual = 0, Final residual = 0, No Iterations 0
time step continuity errors (cabin): sum local = 6.798046542e-07, global = -1.70457847e-07, cumulative = 0.0002575032255
smoothSolver:  Solving for omega, Initial residual = 0.0126962233, Final residual = 9.915032805e-06, No Iterations 4
smoothSolver:  Solving for k, Initial residual = 0.1668075993, Final residual = 9.806681823e-06, No Iterations 8

Solving for solid region windshield
DICPCG:  Solving for h, Initial residual = 0.267870647, Final residual = 7.574973803e-07, No Iterations 50
Min/max T:260.6216667 261.4542898
ExecutionTime = 6.47 s  ClockTime = 6 s

scalarTransport execute: H2O
smoothSolver:  Solving for H2O, Initial residual = 0.04317995712, Final residual = 0.000367262893, No Iterations 2

Region: cabin Courant Number mean: 0.1680712656 max: 4.250001373
Region: windshield Diffusion Number mean: 258.3126816 max: 8981.30136
deltaT = 0.1380283445
Time = 0.84366


Solving for fluid region cabin
diagonal:  Solving for rho, Initial residual = 0, Final residual = 0, No Iterations 0
smoothSolver:  Solving for h, Initial residual = 0.03081953751, Final residual = 6.198094346e-06, No Iterations 6
Min/max T:260.6896303 300.0000432
GAMG:  Solving for p_rgh, Initial residual = 0.07847328173, Final residual = 0.001214955453, No Iterations 2
diagonal:  Solving for rho, Initial residual = 0, Final residual = 0, No Iterations 0
time step continuity errors (cabin): sum local = 0.001227900885, global = -1.241041431e-05, cumulative = 0.0002450928112
GAMG:  Solving for p_rgh, Initial residual = 0.02268697835, Final residual = 7.696115143e-07, No Iterations 9
diagonal:  Solving for rho, Initial residual = 0, Final residual = 0, No Iterations 0
time step continuity errors (cabin): sum local = 7.780652129e-07, global = -1.564843105e-07, cumulative = 0.0002449363269
smoothSolver:  Solving for omega, Initial residual = 0.01427216117, Final residual = 5.744415114e-06, No Iterations 4
smoothSolver:  Solving for k, Initial residual = 0.1501373243, Final residual = 9.567332447e-06, No Iterations 8

Solving for solid region windshield
DICPCG:  Solving for h, Initial residual = 0.2519447421, Final residual = 8.078310163e-07, No Iterations 50
Min/max T:260.689533 261.6962557
ExecutionTime = 6.88 s  ClockTime = 7 s

scalarTransport execute: H2O
smoothSolver:  Solving for H2O, Initial residual = 0.04808502871, Final residual = 7.552125736e-05, No Iterations 3

Region: cabin Courant Number mean: 0.1919094624 max: 4.834636439
Region: windshield Diffusion Number mean: 278.1828878 max: 9672.170695
deltaT = 0.1380283445
Time = 0.981688


Solving for fluid region cabin
diagonal:  Solving for rho, Initial residual = 0, Final residual = 0, No Iterations 0
smoothSolver:  Solving for h, Initial residual = 0.03443759072, Final residual = 4.734400632e-06, No Iterations 6
Min/max T:260.7522589 300.0000501
GAMG:  Solving for p_rgh, Initial residual = 0.1075937749, Final residual = 0.001403727568, No Iterations 2
diagonal:  Solving for rho, Initial residual = 0, Final residual = 0, No Iterations 0
time step continuity errors (cabin): sum local = 0.001465582018, global = -1.131956808e-06, cumulative = 0.0002438043701
GAMG:  Solving for p_rgh, Initial residual = 0.0316503002, Final residual = 7.940472253e-07, No Iterations 10
diagonal:  Solving for rho, Initial residual = 0, Final residual = 0, No Iterations 0
time step continuity errors (cabin): sum local = 8.352871388e-07, global = 2.736503882e-07, cumulative = 0.0002440780205
smoothSolver:  Solving for omega, Initial residual = 0.01523729028, Final residual = 4.131959626e-06, No Iterations 4
smoothSolver:  Solving for k, Initial residual = 0.1251056695, Final residual = 5.720019646e-06, No Iterations 8

Solving for solid region windshield
DICPCG:  Solving for h, Initial residual = 0.2301861716, Final residual = 7.591800631e-07, No Iterations 50
Min/max T:260.7521679 261.9192506
ExecutionTime = 7.31 s  ClockTime = 7 s

scalarTransport execute: H2O
smoothSolver:  Solving for H2O, Initial residual = 0.0453494878, Final residual = 8.887185425e-05, No Iterations 3


timeActivatedFileUpdate: copying file
"/media/inabower/3C9455F89455B55C/inabower/tutorials-v1712/heatTransfer/chtMultiRegionFoam/windshieldCondensation/system/solverControls.0"
to:
"/media/inabower/3C9455F89455B55C/inabower/tutorials-v1712/heatTransfer/chtMultiRegionFoam/windshieldCondensation/system/solverControls"


    From function virtual bool Foam::regIOobject::readIfModified()
    in file db/regIOobject/regIOobjectRead.C at line 286
        Re-reading object controlDict from file "/media/inabower/3C9455F89455B55C/inabower/tutorials-v1712/heatTransfer/chtMultiRegionFoam/windshieldCondensation/system/controlDict" because of modified file "/media/inabower/3C9455F89455B55C/inabower/tutorials-v1712/heatTransfer/chtMultiRegionFoam/windshieldCondensation/system/solverControls"
Region: cabin Courant Number mean: 0.1995746909 max: 4.717568588
Region: windshield Diffusion Number mean: 278.1828878 max: 9672.170695
deltaT = 0.07331960805
Time = 1.05501


Solving for fluid region cabin
diagonal:  Solving for rho, Initial residual = 0, Final residual = 0, No Iterations 0
smoothSolver:  Solving for h, Initial residual = 0.02162253457, Final residual = 3.726631973e-06, No Iterations 5
Min/max T:260.8039234 300.0000538
GAMG:  Solving for p_rgh, Initial residual = 0.08314790507, Final residual = 0.0007244983096, No Iterations 2
diagonal:  Solving for rho, Initial residual = 0, Final residual = 0, No Iterations 0
time step continuity errors (cabin): sum local = 0.0003219782891, global = -5.209394622e-07, cumulative = 0.000243557081
GAMG:  Solving for p_rgh, Initial residual = 0.02972105171, Final residual = 9.466853475e-07, No Iterations 8
diagonal:  Solving for rho, Initial residual = 0, Final residual = 0, No Iterations 0
time step continuity errors (cabin): sum local = 4.210515048e-07, global = 1.802438095e-07, cumulative = 0.0002437373248
smoothSolver:  Solving for omega, Initial residual = 0.007684682388, Final residual = 1.376488879e-06, No Iterations 3
smoothSolver:  Solving for k, Initial residual = 0.06356553307, Final residual = 3.905605749e-06, No Iterations 7

Solving for solid region windshield
DICPCG:  Solving for h, Initial residual = 0.1453695988, Final residual = 5.644079672e-07, No Iterations 41
Min/max T:260.7810592 262.0374854
ExecutionTime = 7.69 s  ClockTime = 7 s

scalarTransport execute: H2O
smoothSolver:  Solving for H2O, Initial residual = 0.0186610422, Final residual = 7.198530742e-05, No Iterations 2

Region: cabin Courant Number mean: 0.1069467558 max: 2.486982004
Region: windshield Diffusion Number mean: 147.7686367 max: 5137.783596
deltaT = 0.07392555522
Time = 1.12893


Solving for fluid region cabin
diagonal:  Solving for rho, Initial residual = 0, Final residual = 0, No Iterations 0
smoothSolver:  Solving for h, Initial residual = 0.01812005693, Final residual = 5.368977059e-06, No Iterations 5
Min/max T:260.8254664 300.0000574
GAMG:  Solving for p_rgh, Initial residual = 0.05741695647, Final residual = 0.0006563517528, No Iterations 2
diagonal:  Solving for rho, Initial residual = 0, Final residual = 0, No Iterations 0
time step continuity errors (cabin): sum local = 0.0003067108161, global = 2.881792161e-06, cumulative = 0.000246619117
GAMG:  Solving for p_rgh, Initial residual = 0.02044856361, Final residual = 7.991497435e-07, No Iterations 11
diagonal:  Solving for rho, Initial residual = 0, Final residual = 0, No Iterations 0
time step continuity errors (cabin): sum local = 3.747488891e-07, global = 9.956471272e-08, cumulative = 0.0002467186817
smoothSolver:  Solving for omega, Initial residual = 0.006046762418, Final residual = 8.344784206e-06, No Iterations 2
smoothSolver:  Solving for k, Initial residual = 0.05332788214, Final residual = 6.260782585e-06, No Iterations 6

Solving for solid region windshield
DICPCG:  Solving for h, Initial residual = 0.13519349, Final residual = 5.530828211e-07, No Iterations 41
Min/max T:260.8049641 262.1689045
ExecutionTime = 8.12 s  ClockTime = 8 s

scalarTransport execute: H2O
smoothSolver:  Solving for H2O, Initial residual = 0.01774561419, Final residual = 7.421818066e-05, No Iterations 2

Region: cabin Courant Number mean: 0.1096645681 max: 2.551776852
Region: windshield Diffusion Number mean: 148.9898651 max: 5180.244617
deltaT = 0.07271366087
Time = 1.20165


Solving for fluid region cabin
diagonal:  Solving for rho, Initial residual = 0, Final residual = 0, No Iterations 0
smoothSolver:  Solving for h, Initial residual = 0.01583118281, Final residual = 3.089208494e-06, No Iterations 5
Min/max T:260.8438131 300.0000609
GAMG:  Solving for p_rgh, Initial residual = 0.05377241608, Final residual = 0.0005472208011, No Iterations 2
diagonal:  Solving for rho, Initial residual = 0, Final residual = 0, No Iterations 0
time step continuity errors (cabin): sum local = 0.0002490098321, global = -1.662704521e-06, cumulative = 0.0002450559771
GAMG:  Solving for p_rgh, Initial residual = 0.01811716547, Final residual = 9.672321095e-07, No Iterations 9
diagonal:  Solving for rho, Initial residual = 0, Final residual = 0, No Iterations 0
time step continuity errors (cabin): sum local = 4.422591724e-07, global = -2.24820076e-07, cumulative = 0.0002448311571
smoothSolver:  Solving for omega, Initial residual = 0.004793810993, Final residual = 9.291193364e-06, No Iterations 2
smoothSolver:  Solving for k, Initial residual = 0.04463328305, Final residual = 5.006013959e-06, No Iterations 6

Solving for solid region windshield
DICPCG:  Solving for h, Initial residual = 0.1240000268, Final residual = 4.70758528e-07, No Iterations 41
Min/max T:260.8248776 262.2921281
ExecutionTime = 8.51 s  ClockTime = 8 s

scalarTransport execute: H2O
smoothSolver:  Solving for H2O, Initial residual = 0.01566775137, Final residual = 6.936870329e-05, No Iterations 2

Region: cabin Courant Number mean: 0.1100766819 max: 2.597082957
Region: windshield Diffusion Number mean: 146.5474083 max: 5095.322575
deltaT = 0.06982819814
Time = 1.27148


Solving for fluid region cabin
diagonal:  Solving for rho, Initial residual = 0, Final residual = 0, No Iterations 0
smoothSolver:  Solving for h, Initial residual = 0.01388990387, Final residual = 7.729345783e-06, No Iterations 4
Min/max T:260.8587069 300.0000643
GAMG:  Solving for p_rgh, Initial residual = 0.04304018524, Final residual = 0.0004981736535, No Iterations 2
diagonal:  Solving for rho, Initial residual = 0, Final residual = 0, No Iterations 0
time step continuity errors (cabin): sum local = 0.0002134232935, global = 4.486039431e-07, cumulative = 0.000245279761
GAMG:  Solving for p_rgh, Initial residual = 0.0136124627, Final residual = 9.524537579e-07, No Iterations 7
diagonal:  Solving for rho, Initial residual = 0, Final residual = 0, No Iterations 0
time step continuity errors (cabin): sum local = 4.091212806e-07, global = 1.108777705e-07, cumulative = 0.0002453906388
smoothSolver:  Solving for omega, Initial residual = 0.003998153536, Final residual = 8.251646283e-06, No Iterations 2
smoothSolver:  Solving for k, Initial residual = 0.03590833175, Final residual = 8.379060483e-06, No Iterations 5

Solving for solid region windshield
DICPCG:  Solving for h, Initial residual = 0.1124551678, Final residual = 3.597863516e-07, No Iterations 41
Min/max T:260.8410251 262.4052847
ExecutionTime = 8.89 s  ClockTime = 9 s

scalarTransport execute: H2O
smoothSolver:  Solving for H2O, Initial residual = 0.01323193425, Final residual = 5.748067338e-05, No Iterations 2

Region: cabin Courant Number mean: 0.1076443524 max: 2.627627841
Region: windshield Diffusion Number mean: 140.732035 max: 4893.127234
deltaT = 0.06662996006
Time = 1.33811


Solving for fluid region cabin
diagonal:  Solving for rho, Initial residual = 0, Final residual = 0, No Iterations 0
smoothSolver:  Solving for h, Initial residual = 0.0121711572, Final residual = 8.10539636e-06, No Iterations 4
Min/max T:260.8706156 300.0000675
GAMG:  Solving for p_rgh, Initial residual = 0.03204624065, Final residual = 0.0003863151363, No Iterations 2
diagonal:  Solving for rho, Initial residual = 0, Final residual = 0, No Iterations 0
time step continuity errors (cabin): sum local = 0.0001539696935, global = -3.966444521e-07, cumulative = 0.0002449939943
GAMG:  Solving for p_rgh, Initial residual = 0.01035582139, Final residual = 9.990096261e-07, No Iterations 8
diagonal:  Solving for rho, Initial residual = 0, Final residual = 0, No Iterations 0
time step continuity errors (cabin): sum local = 3.987569388e-07, global = -2.363178481e-07, cumulative = 0.0002447576765
smoothSolver:  Solving for omega, Initial residual = 0.003502825937, Final residual = 7.064081855e-06, No Iterations 2
smoothSolver:  Solving for k, Initial residual = 0.02835072469, Final residual = 4.952053213e-06, No Iterations 5

Solving for solid region windshield
DICPCG:  Solving for h, Initial residual = 0.1020930857, Final residual = 8.457636028e-07, No Iterations 39
Min/max T:260.8541695 262.5103015
ExecutionTime = 9.27 s  ClockTime = 9 s

scalarTransport execute: H2O
smoothSolver:  Solving for H2O, Initial residual = 0.01178234503, Final residual = 4.567868191e-05, No Iterations 2

Region: cabin Courant Number mean: 0.1044943904 max: 2.665963354
Region: windshield Diffusion Number mean: 134.2862929 max: 4669.014537
deltaT = 0.06231578998
Time = 1.40042


Solving for fluid region cabin
diagonal:  Solving for rho, Initial residual = 0, Final residual = 0, No Iterations 0
smoothSolver:  Solving for h, Initial residual = 0.01070910318, Final residual = 7.044280297e-06, No Iterations 4
Min/max T:260.8804898 300.0000705
GAMG:  Solving for p_rgh, Initial residual = 0.02571612817, Final residual = 0.0002843597338, No Iterations 2
diagonal:  Solving for rho, Initial residual = 0, Final residual = 0, No Iterations 0
time step continuity errors (cabin): sum local = 0.0001011653099, global = 1.033321829e-07, cumulative = 0.0002448610087
GAMG:  Solving for p_rgh, Initial residual = 0.008428613851, Final residual = 6.989522391e-07, No Iterations 7
diagonal:  Solving for rho, Initial residual = 0, Final residual = 0, No Iterations 0
time step continuity errors (cabin): sum local = 2.486640722e-07, global = 8.312163793e-08, cumulative = 0.0002449441303
smoothSolver:  Solving for omega, Initial residual = 0.003015817174, Final residual = 6.209714806e-06, No Iterations 2
smoothSolver:  Solving for k, Initial residual = 0.02185828828, Final residual = 8.892545592e-06, No Iterations 4

Solving for solid region windshield
DICPCG:  Solving for h, Initial residual = 0.0916643879, Final residual = 5.546531872e-07, No Iterations 39
Min/max T:260.86478 262.6070334
ExecutionTime = 9.64 s  ClockTime = 9 s

scalarTransport execute: H2O
smoothSolver:  Solving for H2O, Initial residual = 0.01053688263, Final residual = 3.295110877e-05, No Iterations 2

Region: cabin Courant Number mean: 0.09928335222 max: 2.667198025
Region: windshield Diffusion Number mean: 125.591497 max: 4366.704243
deltaT = 0.05850053753
Time = 1.45892


Solving for fluid region cabin
diagonal:  Solving for rho, Initial residual = 0, Final residual = 0, No Iterations 0
smoothSolver:  Solving for h, Initial residual = 0.009701487597, Final residual = 4.922359901e-06, No Iterations 4
Min/max T:260.8885093 300.0000733
GAMG:  Solving for p_rgh, Initial residual = 0.02181216677, Final residual = 0.0002666694141, No Iterations 2
diagonal:  Solving for rho, Initial residual = 0, Final residual = 0, No Iterations 0
time step continuity errors (cabin): sum local = 8.512827813e-05, global = -5.266527666e-08, cumulative = 0.000244891465
GAMG:  Solving for p_rgh, Initial residual = 0.007205918813, Final residual = 8.183440877e-07, No Iterations 7
diagonal:  Solving for rho, Initial residual = 0, Final residual = 0, No Iterations 0
time step continuity errors (cabin): sum local = 2.611712569e-07, global = 9.039640288e-08, cumulative = 0.0002449818614
smoothSolver:  Solving for omega, Initial residual = 0.002672134835, Final residual = 5.055171078e-06, No Iterations 2
smoothSolver:  Solving for k, Initial residual = 0.01733433178, Final residual = 6.303670423e-06, No Iterations 4

Solving for solid region windshield
DICPCG:  Solving for h, Initial residual = 0.08305602476, Final residual = 7.160264921e-07, No Iterations 36
Min/max T:260.873545 262.6968736
ExecutionTime = 10.04 s  ClockTime = 10 s

scalarTransport execute: H2O
smoothSolver:  Solving for H2O, Initial residual = 0.009495816621, Final residual = 2.80939435e-05, No Iterations 2

Region: cabin Courant Number mean: 0.09455903252 max: 2.634103639
Region: windshield Diffusion Number mean: 117.9022217 max: 4099.355003
deltaT = 0.05546154857
Time = 1.51438


Solving for fluid region cabin
diagonal:  Solving for rho, Initial residual = 0, Final residual = 0, No Iterations 0
smoothSolver:  Solving for h, Initial residual = 0.008851288116, Final residual = 4.125650664e-06, No Iterations 4
Min/max T:260.8954097 300.0000759
GAMG:  Solving for p_rgh, Initial residual = 0.0192922927, Final residual = 0.0002704263466, No Iterations 2
diagonal:  Solving for rho, Initial residual = 0, Final residual = 0, No Iterations 0
time step continuity errors (cabin): sum local = 7.88597199e-05, global = 4.538188144e-08, cumulative = 0.0002450272433
GAMG:  Solving for p_rgh, Initial residual = 0.00643766965, Final residual = 6.001996025e-07, No Iterations 7
diagonal:  Solving for rho, Initial residual = 0, Final residual = 0, No Iterations 0
time step continuity errors (cabin): sum local = 1.750950754e-07, global = 6.101228164e-08, cumulative = 0.0002450882556
smoothSolver:  Solving for omega, Initial residual = 0.002430906633, Final residual = 4.412772704e-06, No Iterations 2
smoothSolver:  Solving for k, Initial residual = 0.01422254555, Final residual = 5.968959942e-06, No Iterations 4

Solving for solid region windshield
DICPCG:  Solving for h, Initial residual = 0.07623758759, Final residual = 5.039925939e-07, No Iterations 36
Min/max T:260.8810442 262.7811698
ExecutionTime = 10.4 s  ClockTime = 10 s

scalarTransport execute: H2O
smoothSolver:  Solving for H2O, Initial residual = 0.00869499914, Final residual = 2.477584913e-05, No Iterations 2

Region: cabin Courant Number mean: 0.09082044553 max: 2.599336504
Region: windshield Diffusion Number mean: 111.7774309 max: 3886.401497
deltaT = 0.05336865995
Time = 1.56775


Solving for fluid region cabin
diagonal:  Solving for rho, Initial residual = 0, Final residual = 0, No Iterations 0
smoothSolver:  Solving for h, Initial residual = 0.008414004397, Final residual = 3.277989062e-06, No Iterations 4
Min/max T:260.9016553 300.0000783
GAMG:  Solving for p_rgh, Initial residual = 0.01695684838, Final residual = 0.0002505506847, No Iterations 2
diagonal:  Solving for rho, Initial residual = 0, Final residual = 0, No Iterations 0
time step continuity errors (cabin): sum local = 6.846739834e-05, global = 1.370337019e-09, cumulative = 0.0002450896259
GAMG:  Solving for p_rgh, Initial residual = 0.005641832931, Final residual = 5.013007477e-07, No Iterations 7
diagonal:  Solving for rho, Initial residual = 0, Final residual = 0, No Iterations 0
time step continuity errors (cabin): sum local = 1.369991377e-07, global = 3.670158991e-08, cumulative = 0.0002451263275
smoothSolver:  Solving for omega, Initial residual = 0.00226002648, Final residual = 4.118193721e-06, No Iterations 2
smoothSolver:  Solving for k, Initial residual = 0.01200388025, Final residual = 4.383376269e-06, No Iterations 4

Solving for solid region windshield
DICPCG:  Solving for h, Initial residual = 0.07110414531, Final residual = 8.163418167e-07, No Iterations 34
Min/max T:260.8877001 262.8615322
ExecutionTime = 10.77 s  ClockTime = 10 s

scalarTransport execute: H2O
smoothSolver:  Solving for H2O, Initial residual = 0.008110339929, Final residual = 2.167853596e-05, No Iterations 2

Region: cabin Courant Number mean: 0.08843616097 max: 2.599566119
Region: windshield Diffusion Number mean: 107.5594147 max: 3739.744837
deltaT = 0.051416148
Time = 1.61917


Solving for fluid region cabin
diagonal:  Solving for rho, Initial residual = 0, Final residual = 0, No Iterations 0
smoothSolver:  Solving for h, Initial residual = 0.007930096655, Final residual = 3.545103187e-06, No Iterations 4
Min/max T:260.9074502 300.0000807
GAMG:  Solving for p_rgh, Initial residual = 0.01531432517, Final residual = 0.0002207893987, No Iterations 2
diagonal:  Solving for rho, Initial residual = 0, Final residual = 0, No Iterations 0
time step continuity errors (cabin): sum local = 5.672450533e-05, global = -5.141396585e-08, cumulative = 0.0002450749136
GAMG:  Solving for p_rgh, Initial residual = 0.005052717885, Final residual = 7.281907756e-07, No Iterations 7
diagonal:  Solving for rho, Initial residual = 0, Final residual = 0, No Iterations 0
time step continuity errors (cabin): sum local = 1.872235067e-07, global = -6.452727635e-08, cumulative = 0.0002450103863
smoothSolver:  Solving for omega, Initial residual = 0.002114064863, Final residual = 3.663186195e-06, No Iterations 2
smoothSolver:  Solving for k, Initial residual = 0.01035622989, Final residual = 2.936011597e-06, No Iterations 4

Solving for solid region windshield
DICPCG:  Solving for h, Initial residual = 0.06657836374, Final residual = 6.661101547e-07, No Iterations 34
Min/max T:260.8937323 262.9383513
ExecutionTime = 11.13 s  ClockTime = 11 s

scalarTransport execute: H2O
smoothSolver:  Solving for H2O, Initial residual = 0.00760068076, Final residual = 1.915314314e-05, No Iterations 2

Region: cabin Courant Number mean: 0.08617258147 max: 2.607767673
Region: windshield Diffusion Number mean: 103.6243141 max: 3602.924903
deltaT = 0.04929901249
Time = 1.66847


Solving for fluid region cabin
diagonal:  Solving for rho, Initial residual = 0, Final residual = 0, No Iterations 0
smoothSolver:  Solving for h, Initial residual = 0.007538801258, Final residual = 3.110644155e-06, No Iterations 4
Min/max T:260.9129181 300.000083
GAMG:  Solving for p_rgh, Initial residual = 0.01382385492, Final residual = 0.0001957702384, No Iterations 2
diagonal:  Solving for rho, Initial residual = 0, Final residual = 0, No Iterations 0
time step continuity errors (cabin): sum local = 4.694713894e-05, global = -1.109290664e-07, cumulative = 0.0002448994572
GAMG:  Solving for p_rgh, Initial residual = 0.004499554042, Final residual = 8.831716784e-07, No Iterations 6
diagonal:  Solving for rho, Initial residual = 0, Final residual = 0, No Iterations 0
time step continuity errors (cabin): sum local = 2.118053775e-07, global = 9.045681855e-08, cumulative = 0.000244989914
smoothSolver:  Solving for omega, Initial residual = 0.001966170446, Final residual = 3.381813801e-06, No Iterations 2
smoothSolver:  Solving for k, Initial residual = 0.009010516599, Final residual = 9.940598406e-06, No Iterations 3

Solving for solid region windshield
DICPCG:  Solving for h, Initial residual = 0.06221521222, Final residual = 5.340497516e-07, No Iterations 34
Min/max T:260.8992628 263.0115642
ExecutionTime = 11.49 s  ClockTime = 11 s

scalarTransport execute: H2O
smoothSolver:  Solving for H2O, Initial residual = 0.007126212281, Final residual = 1.772346744e-05, No Iterations 2

Region: cabin Courant Number mean: 0.08352202111 max: 2.577586436
Region: windshield Diffusion Number mean: 99.3574306 max: 3454.569172
deltaT = 0.0478823742
Time = 1.71635


Solving for fluid region cabin
diagonal:  Solving for rho, Initial residual = 0, Final residual = 0, No Iterations 0
smoothSolver:  Solving for h, Initial residual = 0.007253193593, Final residual = 2.57817421e-06, No Iterations 4
Min/max T:260.9180941 300.0000997
GAMG:  Solving for p_rgh, Initial residual = 0.01305017579, Final residual = 0.0001889910071, No Iterations 2
diagonal:  Solving for rho, Initial residual = 0, Final residual = 0, No Iterations 0
time step continuity errors (cabin): sum local = 4.316400242e-05, global = 1.088995853e-07, cumulative = 0.0002450988136
GAMG:  Solving for p_rgh, Initial residual = 0.004173468012, Final residual = 7.869778287e-07, No Iterations 6
diagonal:  Solving for rho, Initial residual = 0, Final residual = 0, No Iterations 0
time step continuity errors (cabin): sum local = 1.797779612e-07, global = 3.662546354e-08, cumulative = 0.0002451354391
smoothSolver:  Solving for omega, Initial residual = 0.00185603649, Final residual = 2.894435059e-06, No Iterations 2
smoothSolver:  Solving for k, Initial residual = 0.008095795332, Final residual = 7.833609491e-06, No Iterations 3

Solving for solid region windshield
DICPCG:  Solving for h, Initial residual = 0.05890117648, Final residual = 4.560311088e-07, No Iterations 34
Min/max T:260.9044774 263.0823485
ExecutionTime = 11.89 s  ClockTime = 12 s

scalarTransport execute: H2O
smoothSolver:  Solving for H2O, Initial residual = 0.006800170371, Final residual = 1.625586683e-05, No Iterations 2

Region: cabin Courant Number mean: 0.08198966736 max: 2.553409786
Region: windshield Diffusion Number mean: 96.50233202 max: 3355.299943
deltaT = 0.04680028665
Time = 1.76315


Solving for fluid region cabin
diagonal:  Solving for rho, Initial residual = 0, Final residual = 0, No Iterations 0
smoothSolver:  Solving for h, Initial residual = 0.007017843031, Final residual = 8.041394234e-06, No Iterations 3
Min/max T:260.9231341 300.0001222
GAMG:  Solving for p_rgh, Initial residual = 0.01245444989, Final residual = 0.0001881296125, No Iterations 2
diagonal:  Solving for rho, Initial residual = 0, Final residual = 0, No Iterations 0
time step continuity errors (cabin): sum local = 4.13670985e-05, global = -7.884265922e-09, cumulative = 0.0002451275548
GAMG:  Solving for p_rgh, Initial residual = 0.003964622963, Final residual = 8.371474e-07, No Iterations 6
diagonal:  Solving for rho, Initial residual = 0, Final residual = 0, No Iterations 0
time step continuity errors (cabin): sum local = 1.841450706e-07, global = 5.333047105e-08, cumulative = 0.0002451808853
smoothSolver:  Solving for omega, Initial residual = 0.001773413509, Final residual = 2.980980948e-06, No Iterations 2
smoothSolver:  Solving for k, Initial residual = 0.007503521563, Final residual = 6.369288395e-06, No Iterations 3

Solving for solid region windshield
DICPCG:  Solving for h, Initial residual = 0.0561558314, Final residual = 4.018719041e-07, No Iterations 34
Min/max T:260.9094941 263.1512586
ExecutionTime = 12.25 s  ClockTime = 12 s

scalarTransport execute: H2O
smoothSolver:  Solving for H2O, Initial residual = 0.006552619454, Final residual = 1.425381677e-05, No Iterations 2

Region: cabin Courant Number mean: 0.08099028007 max: 2.532459365
Region: windshield Diffusion Number mean: 94.32148835 max: 3279.473956
deltaT = 0.04627444073
Time = 1.80942


Solving for fluid region cabin
diagonal:  Solving for rho, Initial residual = 0, Final residual = 0, No Iterations 0
smoothSolver:  Solving for h, Initial residual = 0.006815079737, Final residual = 6.051056386e-06, No Iterations 3
Min/max T:260.9281297 300.0001457
GAMG:  Solving for p_rgh, Initial residual = 0.01216489317, Final residual = 0.0001884628788, No Iterations 2
diagonal:  Solving for rho, Initial residual = 0, Final residual = 0, No Iterations 0
time step continuity errors (cabin): sum local = 4.064812882e-05, global = -6.100369118e-08, cumulative = 0.0002451198816
GAMG:  Solving for p_rgh, Initial residual = 0.003788695416, Final residual = 7.474577572e-07, No Iterations 6
diagonal:  Solving for rho, Initial residual = 0, Final residual = 0, No Iterations 0
time step continuity errors (cabin): sum local = 1.612274803e-07, global = 2.833725266e-08, cumulative = 0.0002451482188
smoothSolver:  Solving for omega, Initial residual = 0.001717482349, Final residual = 2.212612971e-06, No Iterations 2
smoothSolver:  Solving for k, Initial residual = 0.007260036753, Final residual = 5.409129069e-06, No Iterations 3

Solving for solid region windshield
DICPCG:  Solving for h, Initial residual = 0.05414740696, Final residual = 3.733511013e-07, No Iterations 34
Min/max T:260.9144472 263.2191855
ExecutionTime = 12.62 s  ClockTime = 12 s

scalarTransport execute: H2O
smoothSolver:  Solving for H2O, Initial residual = 0.006407779084, Final residual = 1.240326514e-05, No Iterations 2

Region: cabin Courant Number mean: 0.0809530688 max: 2.556465528
Region: windshield Diffusion Number mean: 93.26169635 max: 3242.625934
deltaT = 0.04525180116
Time = 1.85468


Solving for fluid region cabin
diagonal:  Solving for rho, Initial residual = 0, Final residual = 0, No Iterations 0
smoothSolver:  Solving for h, Initial residual = 0.006613635742, Final residual = 4.988075369e-06, No Iterations 3
Min/max T:260.9332222 300.0001742
GAMG:  Solving for p_rgh, Initial residual = 0.01181290058, Final residual = 0.0001845822828, No Iterations 2
diagonal:  Solving for rho, Initial residual = 0, Final residual = 0, No Iterations 0
time step continuity errors (cabin): sum local = 3.835243055e-05, global = 8.247372025e-09, cumulative = 0.0002451564662
GAMG:  Solving for p_rgh, Initial residual = 0.003632084629, Final residual = 6.63741733e-07, No Iterations 6
diagonal:  Solving for rho, Initial residual = 0, Final residual = 0, No Iterations 0
time step continuity errors (cabin): sum local = 1.379179381e-07, global = 3.741658586e-08, cumulative = 0.0002451938828
smoothSolver:  Solving for omega, Initial residual = 0.001667709509, Final residual = 2.650482561e-06, No Iterations 2
smoothSolver:  Solving for k, Initial residual = 0.006994646461, Final residual = 4.695423566e-06, No Iterations 3

Solving for solid region windshield
DICPCG:  Solving for h, Initial residual = 0.05174308656, Final residual = 3.328284624e-07, No Iterations 34
Min/max T:260.9193545 263.2854472
ExecutionTime = 12.98 s  ClockTime = 13 s

scalarTransport execute: H2O
smoothSolver:  Solving for H2O, Initial residual = 0.006251768535, Final residual = 1.064827236e-05, No Iterations 2

Region: cabin Courant Number mean: 0.08002903311 max: 2.525289504
Region: windshield Diffusion Number mean: 91.20066439 max: 3170.965692
deltaT = 0.04475452862
Time = 1.89943


Solving for fluid region cabin
diagonal:  Solving for rho, Initial residual = 0, Final residual = 0, No Iterations 0
smoothSolver:  Solving for h, Initial residual = 0.006550068934, Final residual = 4.546198902e-06, No Iterations 3
Min/max T:260.9384338 300.0002029
GAMG:  Solving for p_rgh, Initial residual = 0.01162495473, Final residual = 0.0001830361014, No Iterations 2
diagonal:  Solving for rho, Initial residual = 0, Final residual = 0, No Iterations 0
time step continuity errors (cabin): sum local = 3.730145164e-05, global = 5.064267939e-08, cumulative = 0.0002452445255
GAMG:  Solving for p_rgh, Initial residual = 0.003588041002, Final residual = 9.584054958e-07, No Iterations 6
diagonal:  Solving for rho, Initial residual = 0, Final residual = 0, No Iterations 0
time step continuity errors (cabin): sum local = 1.95306154e-07, global = 3.117274754e-08, cumulative = 0.0002452756982
smoothSolver:  Solving for omega, Initial residual = 0.001649620129, Final residual = 2.332503118e-06, No Iterations 2
smoothSolver:  Solving for k, Initial residual = 0.006792242137, Final residual = 4.358949258e-06, No Iterations 3

Solving for solid region windshield
DICPCG:  Solving for h, Initial residual = 0.04998728131, Final residual = 9.972585307e-07, No Iterations 31
Min/max T:260.9243437 263.3508975
ExecutionTime = 13.35 s  ClockTime = 13 s

scalarTransport execute: H2O
smoothSolver:  Solving for H2O, Initial residual = 0.006180964793, Final residual = 1.053175146e-05, No Iterations 2

Region: cabin Courant Number mean: 0.08003149908 max: 2.501810265
Region: windshield Diffusion Number mean: 90.19845928 max: 3136.119915
deltaT = 0.04475452862
Time = 1.94418


Solving for fluid region cabin
diagonal:  Solving for rho, Initial residual = 0, Final residual = 0, No Iterations 0
smoothSolver:  Solving for h, Initial residual = 0.006613331291, Final residual = 4.606443936e-06, No Iterations 3
Min/max T:260.9438934 300.0002304
GAMG:  Solving for p_rgh, Initial residual = 0.01176881, Final residual = 0.0001796669227, No Iterations 2
diagonal:  Solving for rho, Initial residual = 0, Final residual = 0, No Iterations 0
time step continuity errors (cabin): sum local = 3.655148257e-05, global = 7.724449386e-08, cumulative = 0.0002453529427
GAMG:  Solving for p_rgh, Initial residual = 0.0035863149, Final residual = 9.411640219e-07, No Iterations 6
diagonal:  Solving for rho, Initial residual = 0, Final residual = 0, No Iterations 0
time step continuity errors (cabin): sum local = 1.914370943e-07, global = 3.192253111e-08, cumulative = 0.0002453848653
smoothSolver:  Solving for omega, Initial residual = 0.001656939357, Final residual = 2.7414543e-06, No Iterations 2
smoothSolver:  Solving for k, Initial residual = 0.00673633649, Final residual = 4.136962347e-06, No Iterations 3

Solving for solid region windshield
DICPCG:  Solving for h, Initial residual = 0.04879409957, Final residual = 9.756644577e-07, No Iterations 31
Min/max T:260.9295361 263.4162861
ExecutionTime = 13.73 s  ClockTime = 13 s

scalarTransport execute: H2O
smoothSolver:  Solving for H2O, Initial residual = 0.006204686593, Final residual = 1.119322898e-05, No Iterations 2

Region: cabin Courant Number mean: 0.08093805823 max: 2.492079244
Region: windshield Diffusion Number mean: 90.19845928 max: 3136.119915
deltaT = 0.04500455392
Time = 1.98919


Solving for fluid region cabin
diagonal:  Solving for rho, Initial residual = 0, Final residual = 0, No Iterations 0
smoothSolver:  Solving for h, Initial residual = 0.006742988648, Final residual = 4.634264697e-06, No Iterations 3
Min/max T:260.9486234 300.0002552
GAMG:  Solving for p_rgh, Initial residual = 0.01170274716, Final residual = 0.0001723383124, No Iterations 2
diagonal:  Solving for rho, Initial residual = 0, Final residual = 0, No Iterations 0
time step continuity errors (cabin): sum local = 3.531605942e-05, global = 3.057462569e-08, cumulative = 0.0002454154399
GAMG:  Solving for p_rgh, Initial residual = 0.003558717254, Final residual = 7.147898886e-07, No Iterations 6
diagonal:  Solving for rho, Initial residual = 0, Final residual = 0, No Iterations 0
time step continuity errors (cabin): sum local = 1.464502352e-07, global = 3.771001403e-09, cumulative = 0.0002454192109
smoothSolver:  Solving for omega, Initial residual = 0.001670701763, Final residual = 2.339699165e-06, No Iterations 2
smoothSolver:  Solving for k, Initial residual = 0.006818951285, Final residual = 3.732639772e-06, No Iterations 3

Solving for solid region windshield
DICPCG:  Solving for h, Initial residual = 0.04788200286, Final residual = 9.917414287e-07, No Iterations 31
Min/max T:260.9350164 263.4820017
ExecutionTime = 14.09 s  ClockTime = 14 s

scalarTransport execute: H2O
smoothSolver:  Solving for H2O, Initial residual = 0.00624042231, Final residual = 1.192190824e-05, No Iterations 2

Region: cabin Courant Number mean: 0.08233398445 max: 2.490765207
Region: windshield Diffusion Number mean: 90.70236129 max: 3153.640138
deltaT = 0.04525881693
Time = 2.03445


Solving for fluid region cabin
diagonal:  Solving for rho, Initial residual = 0, Final residual = 0, No Iterations 0
smoothSolver:  Solving for h, Initial residual = 0.006869355518, Final residual = 5.168359101e-06, No Iterations 3
Min/max T:260.9519315 300.0002753
GAMG:  Solving for p_rgh, Initial residual = 0.01189776479, Final residual = 0.0001702199868, No Iterations 2
diagonal:  Solving for rho, Initial residual = 0, Final residual = 0, No Iterations 0
time step continuity errors (cabin): sum local = 3.512871604e-05, global = 6.451177483e-08, cumulative = 0.0002454837227
GAMG:  Solving for p_rgh, Initial residual = 0.003538539371, Final residual = 6.868342718e-07, No Iterations 6
diagonal:  Solving for rho, Initial residual = 0, Final residual = 0, No Iterations 0
time step continuity errors (cabin): sum local = 1.417074691e-07, global = 3.937268641e-08, cumulative = 0.0002455230953
smoothSolver:  Solving for omega, Initial residual = 0.001687463372, Final residual = 2.814827484e-06, No Iterations 2
smoothSolver:  Solving for k, Initial residual = 0.006858258276, Final residual = 3.645723215e-06, No Iterations 3

Solving for solid region windshield
DICPCG:  Solving for h, Initial residual = 0.04700365316, Final residual = 9.213684079e-07, No Iterations 33
Min/max T:260.9398202 263.5480788
ExecutionTime = 14.5 s  ClockTime = 14 s

scalarTransport execute: H2O
smoothSolver:  Solving for H2O, Initial residual = 0.006230317447, Final residual = 1.238285762e-05, No Iterations 2

Region: cabin Courant Number mean: 0.08377379232 max: 2.477113802
Region: windshield Diffusion Number mean: 91.21480401 max: 3171.457314
deltaT = 0.04577903322
Time = 2.08023


Solving for fluid region cabin
diagonal:  Solving for rho, Initial residual = 0, Final residual = 0, No Iterations 0
smoothSolver:  Solving for h, Initial residual = 0.006984997545, Final residual = 4.952296981e-06, No Iterations 3
Min/max T:260.9551574 300.0002879
GAMG:  Solving for p_rgh, Initial residual = 0.01203416246, Final residual = 0.0001701226451, No Iterations 2
diagonal:  Solving for rho, Initial residual = 0, Final residual = 0, No Iterations 0
time step continuity errors (cabin): sum local = 3.567139193e-05, global = 6.852067452e-08, cumulative = 0.000245591616
GAMG:  Solving for p_rgh, Initial residual = 0.003565696318, Final residual = 5.80867603e-07, No Iterations 6
diagonal:  Solving for rho, Initial residual = 0, Final residual = 0, No Iterations 0
time step continuity errors (cabin): sum local = 1.217534471e-07, global = 3.291722153e-08, cumulative = 0.0002456245332
smoothSolver:  Solving for omega, Initial residual = 0.001703120677, Final residual = 2.324559605e-06, No Iterations 2
smoothSolver:  Solving for k, Initial residual = 0.00693419087, Final residual = 3.638173197e-06, No Iterations 3

Solving for solid region windshield
DICPCG:  Solving for h, Initial residual = 0.04639676656, Final residual = 3.086823112e-07, No Iterations 34
Min/max T:260.9430532 263.6149392
ExecutionTime = 14.88 s  ClockTime = 15 s

scalarTransport execute: H2O
smoothSolver:  Solving for H2O, Initial residual = 0.006260390872, Final residual = 1.298042371e-05, No Iterations 2

Region: cabin Courant Number mean: 0.08575428029 max: 2.470249227
Region: windshield Diffusion Number mean: 92.26325003 max: 3207.910846
deltaT = 0.04631446051
Time = 2.12654


Solving for fluid region cabin
diagonal:  Solving for rho, Initial residual = 0, Final residual = 0, No Iterations 0
smoothSolver:  Solving for h, Initial residual = 0.007076620003, Final residual = 5.44732692e-06, No Iterations 3
Min/max T:260.958484 300.0002893
GAMG:  Solving for p_rgh, Initial residual = 0.01199061023, Final residual = 0.0001728634272, No Iterations 2
diagonal:  Solving for rho, Initial residual = 0, Final residual = 0, No Iterations 0
time step continuity errors (cabin): sum local = 3.683803134e-05, global = 1.085113867e-08, cumulative = 0.0002456353844
GAMG:  Solving for p_rgh, Initial residual = 0.003565538502, Final residual = 5.339934266e-07, No Iterations 6
diagonal:  Solving for rho, Initial residual = 0, Final residual = 0, No Iterations 0
time step continuity errors (cabin): sum local = 1.137575457e-07, global = 3.047408396e-08, cumulative = 0.0002456658585
smoothSolver:  Solving for omega, Initial residual = 0.001721508125, Final residual = 2.652222422e-06, No Iterations 2
smoothSolver:  Solving for k, Initial residual = 0.007043417244, Final residual = 3.633034584e-06, No Iterations 3

Solving for solid region windshield
DICPCG:  Solving for h, Initial residual = 0.04581608267, Final residual = 3.161245721e-07, No Iterations 34
Min/max T:260.9463474 263.6826237
ExecutionTime = 15.24 s  ClockTime = 15 s

scalarTransport execute: H2O
smoothSolver:  Solving for H2O, Initial residual = 0.00627474233, Final residual = 1.357363008e-05, No Iterations 2

Region: cabin Courant Number mean: 0.08781163705 max: 2.463434866
Region: windshield Diffusion Number mean: 93.34235237 max: 3245.430272
deltaT = 0.04686582313
Time = 2.17341


Solving for fluid region cabin
diagonal:  Solving for rho, Initial residual = 0, Final residual = 0, No Iterations 0
smoothSolver:  Solving for h, Initial residual = 0.007151729225, Final residual = 5.150397869e-06, No Iterations 3
Min/max T:260.9618906 300.0003121
GAMG:  Solving for p_rgh, Initial residual = 0.01198960117, Final residual = 0.0001757978058, No Iterations 2
diagonal:  Solving for rho, Initial residual = 0, Final residual = 0, No Iterations 0
time step continuity errors (cabin): sum local = 3.807736531e-05, global = 8.242704379e-08, cumulative = 0.0002457482855
GAMG:  Solving for p_rgh, Initial residual = 0.003582935143, Final residual = 5.238278747e-07, No Iterations 6
diagonal:  Solving for rho, Initial residual = 0, Final residual = 0, No Iterations 0
time step continuity errors (cabin): sum local = 1.133932365e-07, global = 2.310980118e-08, cumulative = 0.0002457713953
smoothSolver:  Solving for omega, Initial residual = 0.001736499714, Final residual = 2.48179833e-06, No Iterations 2
smoothSolver:  Solving for k, Initial residual = 0.007152255972, Final residual = 3.546592261e-06, No Iterations 3

Solving for solid region windshield
DICPCG:  Solving for h, Initial residual = 0.04526167978, Final residual = 3.242613412e-07, No Iterations 34
Min/max T:260.9497089 263.7511869
ExecutionTime = 15.61 s  ClockTime = 15 s

scalarTransport execute: H2O
smoothSolver:  Solving for H2O, Initial residual = 0.006297679519, Final residual = 1.432663879e-05, No Iterations 2

Region: cabin Courant Number mean: 0.08994766321 max: 2.465801997
Region: windshield Diffusion Number mean: 94.45357085 max: 3284.066346
deltaT = 0.04743389372
Time = 2.22084


Solving for fluid region cabin
diagonal:  Solving for rho, Initial residual = 0, Final residual = 0, No Iterations 0
smoothSolver:  Solving for h, Initial residual = 0.007245035386, Final residual = 5.496315164e-06, No Iterations 3
Min/max T:260.965356 300.0003352
GAMG:  Solving for p_rgh, Initial residual = 0.01220320849, Final residual = 0.0001764851149, No Iterations 2
diagonal:  Solving for rho, Initial residual = 0, Final residual = 0, No Iterations 0
time step continuity errors (cabin): sum local = 3.885431138e-05, global = 1.826227887e-08, cumulative = 0.0002457896576
GAMG:  Solving for p_rgh, Initial residual = 0.003581914811, Final residual = 4.576005745e-07, No Iterations 6
diagonal:  Solving for rho, Initial residual = 0, Final residual = 0, No Iterations 0
time step continuity errors (cabin): sum local = 1.007015119e-07, global = 1.249992436e-09, cumulative = 0.0002457909076
smoothSolver:  Solving for omega, Initial residual = 0.001757720175, Final residual = 2.951339221e-06, No Iterations 2
smoothSolver:  Solving for k, Initial residual = 0.007329645853, Final residual = 3.6287272e-06, No Iterations 3

Solving for solid region windshield
DICPCG:  Solving for h, Initial residual = 0.04473051319, Final residual = 3.332981484e-07, No Iterations 34
Min/max T:260.9531348 263.8206735
ExecutionTime = 15.98 s  ClockTime = 16 s

scalarTransport execute: H2O
smoothSolver:  Solving for H2O, Initial residual = 0.006315725256, Final residual = 1.510324338e-05, No Iterations 2

Region: cabin Courant Number mean: 0.09217616618 max: 2.481156149
Region: windshield Diffusion Number mean: 95.59846262 max: 3323.873211
deltaT = 0.0477248992
Time = 2.26857


Solving for fluid region cabin
diagonal:  Solving for rho, Initial residual = 0, Final residual = 0, No Iterations 0
smoothSolver:  Solving for h, Initial residual = 0.007281081673, Final residual = 5.304893988e-06, No Iterations 3
Min/max T:260.9688638 300.000351
GAMG:  Solving for p_rgh, Initial residual = 0.01208831941, Final residual = 0.0001761786438, No Iterations 2
diagonal:  Solving for rho, Initial residual = 0, Final residual = 0, No Iterations 0
time step continuity errors (cabin): sum local = 3.906444287e-05, global = 9.06635169e-08, cumulative = 0.0002458815711
GAMG:  Solving for p_rgh, Initial residual = 0.003566527498, Final residual = 5.844945877e-07, No Iterations 6
diagonal:  Solving for rho, Initial residual = 0, Final residual = 0, No Iterations 0
time step continuity errors (cabin): sum local = 1.2955843e-07, global = -4.648969806e-09, cumulative = 0.0002458769221
smoothSolver:  Solving for omega, Initial residual = 0.001762034767, Final residual = 2.663465635e-06, No Iterations 2
smoothSolver:  Solving for k, Initial residual = 0.007427082226, Final residual = 3.542082405e-06, No Iterations 3

Solving for solid region windshield
DICPCG:  Solving for h, Initial residual = 0.04397752111, Final residual = 3.342580542e-07, No Iterations 34
Min/max T:260.9565955 263.8906902
ExecutionTime = 16.34 s  ClockTime = 16 s

scalarTransport execute: H2O
smoothSolver:  Solving for H2O, Initial residual = 0.006313120704, Final residual = 1.570248935e-05, No Iterations 2

Region: cabin Courant Number mean: 0.09390755712 max: 2.501651531
Region: windshield Diffusion Number mean: 96.18495626 max: 3344.265071
deltaT = 0.0477248992
Time = 2.31629


Solving for fluid region cabin
diagonal:  Solving for rho, Initial residual = 0, Final residual = 0, No Iterations 0
smoothSolver:  Solving for h, Initial residual = 0.007298580005, Final residual = 5.644288351e-06, No Iterations 3
Min/max T:260.9723757 300.0003567
GAMG:  Solving for p_rgh, Initial residual = 0.01198513963, Final residual = 0.0001799940813, No Iterations 2
diagonal:  Solving for rho, Initial residual = 0, Final residual = 0, No Iterations 0
time step continuity errors (cabin): sum local = 3.980480038e-05, global = -3.132434978e-08, cumulative = 0.0002458455978
GAMG:  Solving for p_rgh, Initial residual = 0.003519289473, Final residual = 4.415758307e-07, No Iterations 6
diagonal:  Solving for rho, Initial residual = 0, Final residual = 0, No Iterations 0
time step continuity errors (cabin): sum local = 9.760538484e-08, global = 2.569293253e-09, cumulative = 0.0002458481671
smoothSolver:  Solving for omega, Initial residual = 0.00175729257, Final residual = 2.850855418e-06, No Iterations 2
smoothSolver:  Solving for k, Initial residual = 0.007444656764, Final residual = 3.534144229e-06, No Iterations 3

Solving for solid region windshield
DICPCG:  Solving for h, Initial residual = 0.04301096665, Final residual = 3.26636331e-07, No Iterations 34
Min/max T:260.9600582 263.9608334
ExecutionTime = 16.7 s  ClockTime = 16 s

scalarTransport execute: H2O
smoothSolver:  Solving for H2O, Initial residual = 0.006277827297, Final residual = 1.583384578e-05, No Iterations 2

Region: cabin Courant Number mean: 0.09509010141 max: 2.527828313
Region: windshield Diffusion Number mean: 96.18495626 max: 3344.265071
deltaT = 0.04713931761
Time = 2.36343


Solving for fluid region cabin
diagonal:  Solving for rho, Initial residual = 0, Final residual = 0, No Iterations 0
smoothSolver:  Solving for h, Initial residual = 0.00720495055, Final residual = 5.375256944e-06, No Iterations 3
Min/max T:260.9758578 300.0003505
GAMG:  Solving for p_rgh, Initial residual = 0.01183394209, Final residual = 0.0001786596958, No Iterations 2
diagonal:  Solving for rho, Initial residual = 0, Final residual = 0, No Iterations 0
time step continuity errors (cabin): sum local = 3.863932011e-05, global = 1.009495931e-07, cumulative = 0.0002459491167
GAMG:  Solving for p_rgh, Initial residual = 0.003467402333, Final residual = 6.983946865e-07, No Iterations 6
diagonal:  Solving for rho, Initial residual = 0, Final residual = 0, No Iterations 0
time step continuity errors (cabin): sum local = 1.510210823e-07, global = 1.561116518e-08, cumulative = 0.0002459647278
smoothSolver:  Solving for omega, Initial residual = 0.001733006927, Final residual = 2.64164519e-06, No Iterations 2
smoothSolver:  Solving for k, Initial residual = 0.007336928676, Final residual = 3.294308669e-06, No Iterations 3

Solving for solid region windshield
DICPCG:  Solving for h, Initial residual = 0.04161473645, Final residual = 3.028215449e-07, No Iterations 34
Min/max T:260.9634693 264.0302545
ExecutionTime = 17.07 s  ClockTime = 17 s

scalarTransport execute: H2O
smoothSolver:  Solving for H2O, Initial residual = 0.006145428062, Final residual = 1.534087263e-05, No Iterations 2

Region: cabin Courant Number mean: 0.09510724126 max: 2.53922811
Region: windshield Diffusion Number mean: 95.00477274 max: 3303.231144
deltaT = 0.04628223911
Time = 2.40971


Solving for fluid region cabin
diagonal:  Solving for rho, Initial residual = 0, Final residual = 0, No Iterations 0
smoothSolver:  Solving for h, Initial residual = 0.007074152774, Final residual = 5.478160075e-06, No Iterations 3
Min/max T:260.9792598 300.0003309
GAMG:  Solving for p_rgh, Initial residual = 0.011585738, Final residual = 0.0001767187582, No Iterations 2
diagonal:  Solving for rho, Initial residual = 0, Final residual = 0, No Iterations 0
time step continuity errors (cabin): sum local = 3.703006395e-05, global = -3.361381486e-08, cumulative = 0.000245931114
GAMG:  Solving for p_rgh, Initial residual = 0.003390593067, Final residual = 5.788504215e-07, No Iterations 6
diagonal:  Solving for rho, Initial residual = 0, Final residual = 0, No Iterations 0
time step continuity errors (cabin): sum local = 1.212384335e-07, global = -2.406174436e-09, cumulative = 0.0002459287078
smoothSolver:  Solving for omega, Initial residual = 0.001700669806, Final residual = 2.566774674e-06, No Iterations 2
smoothSolver:  Solving for k, Initial residual = 0.007188103998, Final residual = 2.863359891e-06, No Iterations 3

Solving for solid region windshield
DICPCG:  Solving for h, Initial residual = 0.04006782368, Final residual = 9.883068283e-07, No Iterations 31
Min/max T:260.9668003 264.098567
ExecutionTime = 17.43 s  ClockTime = 17 s

scalarTransport execute: H2O
smoothSolver:  Solving for H2O, Initial residual = 0.005989062732, Final residual = 1.452194554e-05, No Iterations 2

Region: cabin Courant Number mean: 0.09454422563 max: 2.557094338
Region: windshield Diffusion Number mean: 93.27741324 max: 3243.172396
deltaT = 0.04518028104
Time = 2.45489


Solving for fluid region cabin
diagonal:  Solving for rho, Initial residual = 0, Final residual = 0, No Iterations 0
smoothSolver:  Solving for h, Initial residual = 0.00691850384, Final residual = 5.112521105e-06, No Iterations 3
Min/max T:260.9825604 300.0003198
GAMG:  Solving for p_rgh, Initial residual = 0.01120417641, Final residual = 0.0001713485819, No Iterations 2
diagonal:  Solving for rho, Initial residual = 0, Final residual = 0, No Iterations 0
time step continuity errors (cabin): sum local = 3.445244726e-05, global = 6.399338968e-08, cumulative = 0.0002459927012
GAMG:  Solving for p_rgh, Initial residual = 0.003311316914, Final residual = 5.785515464e-07, No Iterations 6
diagonal:  Solving for rho, Initial residual = 0, Final residual = 0, No Iterations 0
time step continuity errors (cabin): sum local = 1.162537779e-07, global = 8.362214415e-09, cumulative = 0.0002460010634
smoothSolver:  Solving for omega, Initial residual = 0.001663532551, Final residual = 2.380967892e-06, No Iterations 2
smoothSolver:  Solving for k, Initial residual = 0.007005954636, Final residual = 2.427203216e-06, No Iterations 3

Solving for solid region windshield
DICPCG:  Solving for h, Initial residual = 0.03840168789, Final residual = 8.169571746e-07, No Iterations 31
Min/max T:260.9700285 264.1654045
ExecutionTime = 17.8 s  ClockTime = 18 s

scalarTransport execute: H2O
smoothSolver:  Solving for H2O, Initial residual = 0.005823701749, Final residual = 1.341843203e-05, No Iterations 2

Region: cabin Courant Number mean: 0.09339833884 max: 2.56861604
Region: windshield Diffusion Number mean: 91.05652245 max: 3165.954006
deltaT = 0.04386690078
Time = 2.49876


Solving for fluid region cabin
diagonal:  Solving for rho, Initial residual = 0, Final residual = 0, No Iterations 0
smoothSolver:  Solving for h, Initial residual = 0.006709543129, Final residual = 4.797657864e-06, No Iterations 3
Min/max T:260.9857435 300.0003077
GAMG:  Solving for p_rgh, Initial residual = 0.0109186542, Final residual = 0.0001653578293, No Iterations 2
diagonal:  Solving for rho, Initial residual = 0, Final residual = 0, No Iterations 0
time step continuity errors (cabin): sum local = 3.163230142e-05, global = -3.939850377e-08, cumulative = 0.0002459616649
GAMG:  Solving for p_rgh, Initial residual = 0.003192411569, Final residual = 4.654294003e-07, No Iterations 6
diagonal:  Solving for rho, Initial residual = 0, Final residual = 0, No Iterations 0
time step continuity errors (cabin): sum local = 8.900657249e-08, global = -1.624933484e-09, cumulative = 0.00024596004
smoothSolver:  Solving for omega, Initial residual = 0.001622996055, Final residual = 2.211227152e-06, No Iterations 2
[...]
diagonal:  Solving for rho, Initial residual = 0, Final residual = 0, No Iterations 0
smoothSolver:  Solving for h, Initial residual = 0.004772676, Final residual = 3.34185817e-06, No Iterations 5
Min/max T:268.3337005 308.0102864
GAMG:  Solving for p_rgh, Initial residual = 0.05136894148, Final residual = 0.0009435935339, No Iterations 2
diagonal:  Solving for rho, Initial residual = 0, Final residual = 0, No Iterations 0
time step continuity errors (cabin): sum local = 1.883212356e-05, global = 4.857955198e-07, cumulative = 0.0009947737678
GAMG:  Solving for p_rgh, Initial residual = 0.03336075784, Final residual = 6.133211426e-07, No Iterations 12
diagonal:  Solving for rho, Initial residual = 0, Final residual = 0, No Iterations 0
time step continuity errors (cabin): sum local = 1.221517883e-08, global = 3.780542705e-09, cumulative = 0.0009947775484
smoothSolver:  Solving for omega, Initial residual = 0.006099769829, Final residual = 4.31130907e-06, No Iterations 5
smoothSolver:  Solving for k, Initial residual = 0.0114497761, Final residual = 8.238375207e-06, No Iterations 5

Solving for solid region windshield
DICPCG:  Solving for h, Initial residual = 0.001256728167, Final residual = 7.920268094e-07, No Iterations 12
Min/max T:268.2440744 290.3090739
ExecutionTime = 934.55 s  ClockTime = 937 s

scalarTransport execute: H2O
smoothSolver:  Solving for H2O, Initial residual = 0.003490628225, Final residual = 1.805820084e-05, No Iterations 4

Region: cabin Courant Number mean: 0.6973877346 max: 11.97447623
Region: windshield Diffusion Number mean: 30.53642536 max: 1061.724252
deltaT = 0.01515151515
Time = 89.8485


Solving for fluid region cabin
diagonal:  Solving for rho, Initial residual = 0, Final residual = 0, No Iterations 0
smoothSolver:  Solving for h, Initial residual = 0.004758081031, Final residual = 9.882912797e-06, No Iterations 4
Min/max T:268.3367505 308.0111073
GAMG:  Solving for p_rgh, Initial residual = 0.05142230758, Final residual = 0.00093879082, No Iterations 2
diagonal:  Solving for rho, Initial residual = 0, Final residual = 0, No Iterations 0
time step continuity errors (cabin): sum local = 1.868697754e-05, global = 3.513174847e-07, cumulative = 0.0009951288659
GAMG:  Solving for p_rgh, Initial residual = 0.03342691564, Final residual = 6.215658534e-07, No Iterations 9
diagonal:  Solving for rho, Initial residual = 0, Final residual = 0, No Iterations 0
time step continuity errors (cabin): sum local = 1.23507719e-08, global = -3.711119556e-09, cumulative = 0.0009951251547
smoothSolver:  Solving for omega, Initial residual = 0.00608032424, Final residual = 4.762079422e-06, No Iterations 5
smoothSolver:  Solving for k, Initial residual = 0.01150418102, Final residual = 8.478434748e-06, No Iterations 5

Solving for solid region windshield
DICPCG:  Solving for h, Initial residual = 0.001259991159, Final residual = 7.82016681e-07, No Iterations 12
Min/max T:268.246995 290.3138482
ExecutionTime = 934.94 s  ClockTime = 938 s

scalarTransport execute: H2O
smoothSolver:  Solving for H2O, Initial residual = 0.003482492053, Final residual = 1.820325947e-05, No Iterations 4

Region: cabin Courant Number mean: 0.6975581088 max: 11.97471168
Region: windshield Diffusion Number mean: 30.53642536 max: 1061.724252
deltaT = 0.01515151515
Time = 89.8636


Solving for fluid region cabin
diagonal:  Solving for rho, Initial residual = 0, Final residual = 0, No Iterations 0
smoothSolver:  Solving for h, Initial residual = 0.004750059352, Final residual = 4.307341859e-06, No Iterations 5
Min/max T:268.3398258 308.0106294
GAMG:  Solving for p_rgh, Initial residual = 0.05129349932, Final residual = 0.0009486404359, No Iterations 2
diagonal:  Solving for rho, Initial residual = 0, Final residual = 0, No Iterations 0
time step continuity errors (cabin): sum local = 1.883255204e-05, global = 4.479087999e-07, cumulative = 0.0009955730635
GAMG:  Solving for p_rgh, Initial residual = 0.03335357754, Final residual = 8.450847582e-07, No Iterations 9
diagonal:  Solving for rho, Initial residual = 0, Final residual = 0, No Iterations 0
time step continuity errors (cabin): sum local = 1.67652612e-08, global = -6.451290857e-09, cumulative = 0.0009955666123
smoothSolver:  Solving for omega, Initial residual = 0.006048047762, Final residual = 4.670636682e-06, No Iterations 5
smoothSolver:  Solving for k, Initial residual = 0.01153661106, Final residual = 8.350629525e-06, No Iterations 5

Solving for solid region windshield
DICPCG:  Solving for h, Initial residual = 0.001277293911, Final residual = 8.073750114e-07, No Iterations 12
Min/max T:268.2499416 290.3171896
ExecutionTime = 935.32 s  ClockTime = 938 s

scalarTransport execute: H2O
smoothSolver:  Solving for H2O, Initial residual = 0.003472193514, Final residual = 1.764049127e-05, No Iterations 4

Region: cabin Courant Number mean: 0.6977212413 max: 11.97497355
Region: windshield Diffusion Number mean: 30.53642536 max: 1061.724252
deltaT = 0.01515151515
Time = 89.8788


Solving for fluid region cabin
diagonal:  Solving for rho, Initial residual = 0, Final residual = 0, No Iterations 0
smoothSolver:  Solving for h, Initial residual = 0.004721009973, Final residual = 3.638784007e-06, No Iterations 5
Min/max T:268.3429265 308.0113631
GAMG:  Solving for p_rgh, Initial residual = 0.05128231801, Final residual = 0.0009406467155, No Iterations 2
diagonal:  Solving for rho, Initial residual = 0, Final residual = 0, No Iterations 0
time step continuity errors (cabin): sum local = 1.866593846e-05, global = 3.488882478e-07, cumulative = 0.0009959155005
GAMG:  Solving for p_rgh, Initial residual = 0.03324574684, Final residual = 5.585067793e-07, No Iterations 11
diagonal:  Solving for rho, Initial residual = 0, Final residual = 0, No Iterations 0
time step continuity errors (cabin): sum local = 1.108143121e-08, global = -2.854445657e-09, cumulative = 0.0009959126461
smoothSolver:  Solving for omega, Initial residual = 0.006065730139, Final residual = 3.925910271e-06, No Iterations 5
smoothSolver:  Solving for k, Initial residual = 0.01152842638, Final residual = 7.619160904e-06, No Iterations 5

Solving for solid region windshield
DICPCG:  Solving for h, Initial residual = 0.001250524654, Final residual = 8.054498931e-07, No Iterations 12
Min/max T:268.2529139 290.3198951
ExecutionTime = 935.72 s  ClockTime = 939 s

scalarTransport execute: H2O
smoothSolver:  Solving for H2O, Initial residual = 0.003454261458, Final residual = 1.671400144e-05, No Iterations 4

Region: cabin Courant Number mean: 0.6978890944 max: 11.97556043
Region: windshield Diffusion Number mean: 30.53642536 max: 1061.724252
deltaT = 0.01515151515
Time = 89.8939


Solving for fluid region cabin
diagonal:  Solving for rho, Initial residual = 0, Final residual = 0, No Iterations 0
smoothSolver:  Solving for h, Initial residual = 0.004692288569, Final residual = 3.334385361e-06, No Iterations 5
Min/max T:268.3460534 308.0107364
GAMG:  Solving for p_rgh, Initial residual = 0.0511985503, Final residual = 0.0009149338566, No Iterations 2
diagonal:  Solving for rho, Initial residual = 0, Final residual = 0, No Iterations 0
time step continuity errors (cabin): sum local = 1.815471908e-05, global = 4.394787124e-07, cumulative = 0.0009963521248
GAMG:  Solving for p_rgh, Initial residual = 0.03304127561, Final residual = 9.368331678e-07, No Iterations 11
diagonal:  Solving for rho, Initial residual = 0, Final residual = 0, No Iterations 0
time step continuity errors (cabin): sum local = 1.860174298e-08, global = -9.282091497e-09, cumulative = 0.0009963428427
smoothSolver:  Solving for omega, Initial residual = 0.006064220271, Final residual = 3.6700913e-06, No Iterations 5
smoothSolver:  Solving for k, Initial residual = 0.01153705867, Final residual = 8.460607206e-06, No Iterations 5

Solving for solid region windshield
DICPCG:  Solving for h, Initial residual = 0.001242562591, Final residual = 8.185510042e-07, No Iterations 12
Min/max T:268.2559122 290.3229416
ExecutionTime = 936.11 s  ClockTime = 939 s

scalarTransport execute: H2O
smoothSolver:  Solving for H2O, Initial residual = 0.003438795447, Final residual = 1.661186363e-05, No Iterations 4

Region: cabin Courant Number mean: 0.6980409851 max: 11.97593872
Region: windshield Diffusion Number mean: 30.53642536 max: 1061.724252
deltaT = 0.01515151515
Time = 89.9091


Solving for fluid region cabin
diagonal:  Solving for rho, Initial residual = 0, Final residual = 0, No Iterations 0
smoothSolver:  Solving for h, Initial residual = 0.00467173351, Final residual = 3.54057108e-06, No Iterations 5
Min/max T:268.3492068 308.0113503
GAMG:  Solving for p_rgh, Initial residual = 0.05090207934, Final residual = 0.0009164068711, No Iterations 2
diagonal:  Solving for rho, Initial residual = 0, Final residual = 0, No Iterations 0
time step continuity errors (cabin): sum local = 1.822447494e-05, global = 3.553561494e-07, cumulative = 0.0009966981988
GAMG:  Solving for p_rgh, Initial residual = 0.03284342294, Final residual = 7.620206454e-07, No Iterations 12
diagonal:  Solving for rho, Initial residual = 0, Final residual = 0, No Iterations 0
time step continuity errors (cabin): sum local = 1.515809346e-08, global = 6.017442364e-09, cumulative = 0.0009967042163
smoothSolver:  Solving for omega, Initial residual = 0.006074606589, Final residual = 3.679943853e-06, No Iterations 5
smoothSolver:  Solving for k, Initial residual = 0.01153244927, Final residual = 8.570198072e-06, No Iterations 5

Solving for solid region windshield
DICPCG:  Solving for h, Initial residual = 0.001255557135, Final residual = 8.435528695e-07, No Iterations 12
Min/max T:268.2589363 290.3267289
ExecutionTime = 936.52 s  ClockTime = 939 s

scalarTransport execute: H2O
smoothSolver:  Solving for H2O, Initial residual = 0.00342463388, Final residual = 1.658091655e-05, No Iterations 4

Region: cabin Courant Number mean: 0.6981575635 max: 11.97625127
Region: windshield Diffusion Number mean: 30.53642536 max: 1061.724252
deltaT = 0.01515151515
Time = 89.9242


Solving for fluid region cabin
diagonal:  Solving for rho, Initial residual = 0, Final residual = 0, No Iterations 0
smoothSolver:  Solving for h, Initial residual = 0.00466383513, Final residual = 3.518757695e-06, No Iterations 5
Min/max T:268.3523872 308.0110323
GAMG:  Solving for p_rgh, Initial residual = 0.0504753041, Final residual = 0.000920018221, No Iterations 2
diagonal:  Solving for rho, Initial residual = 0, Final residual = 0, No Iterations 0
time step continuity errors (cabin): sum local = 1.832212564e-05, global = 3.478424295e-07, cumulative = 0.0009970520587
GAMG:  Solving for p_rgh, Initial residual = 0.03275858014, Final residual = 9.884209051e-07, No Iterations 10
diagonal:  Solving for rho, Initial residual = 0, Final residual = 0, No Iterations 0
time step continuity errors (cabin): sum local = 1.967318391e-08, global = 6.456655217e-09, cumulative = 0.0009970585154
smoothSolver:  Solving for omega, Initial residual = 0.006093360148, Final residual = 4.746077857e-06, No Iterations 5
smoothSolver:  Solving for k, Initial residual = 0.01149598108, Final residual = 7.820724764e-06, No Iterations 5

Solving for solid region windshield
DICPCG:  Solving for h, Initial residual = 0.00122851566, Final residual = 8.168041162e-07, No Iterations 12
Min/max T:268.2619866 290.3313049
ExecutionTime = 936.9 s  ClockTime = 940 s

scalarTransport execute: H2O
smoothSolver:  Solving for H2O, Initial residual = 0.003401347966, Final residual = 1.628825882e-05, No Iterations 4

Region: cabin Courant Number mean: 0.6982501887 max: 11.97621978
Region: windshield Diffusion Number mean: 30.53642536 max: 1061.724252
deltaT = 0.01515151515
Time = 89.9394


Solving for fluid region cabin
diagonal:  Solving for rho, Initial residual = 0, Final residual = 0, No Iterations 0
smoothSolver:  Solving for h, Initial residual = 0.004632812741, Final residual = 4.161615444e-06, No Iterations 5
Min/max T:268.355595 308.0117869
GAMG:  Solving for p_rgh, Initial residual = 0.0503992508, Final residual = 0.0009343022719, No Iterations 2
diagonal:  Solving for rho, Initial residual = 0, Final residual = 0, No Iterations 0
time step continuity errors (cabin): sum local = 1.861709735e-05, global = 4.952831452e-07, cumulative = 0.0009975537985
GAMG:  Solving for p_rgh, Initial residual = 0.0327873367, Final residual = 8.414661244e-07, No Iterations 11
diagonal:  Solving for rho, Initial residual = 0, Final residual = 0, No Iterations 0
time step continuity errors (cabin): sum local = 1.674715298e-08, global = -8.489095716e-09, cumulative = 0.0009975453094
smoothSolver:  Solving for omega, Initial residual = 0.006083272533, Final residual = 4.48389712e-06, No Iterations 5
smoothSolver:  Solving for k, Initial residual = 0.01145950367, Final residual = 8.169886391e-06, No Iterations 5

Solving for solid region windshield
DICPCG:  Solving for h, Initial residual = 0.001243696574, Final residual = 8.000031784e-07, No Iterations 12
Min/max T:268.265063 290.3373113
ExecutionTime = 937.29 s  ClockTime = 940 s

scalarTransport execute: H2O
smoothSolver:  Solving for H2O, Initial residual = 0.003390459828, Final residual = 1.645814953e-05, No Iterations 4

Region: cabin Courant Number mean: 0.6983282764 max: 11.97623781
Region: windshield Diffusion Number mean: 30.53642536 max: 1061.724252
deltaT = 0.01515151515
Time = 89.9545


Solving for fluid region cabin
diagonal:  Solving for rho, Initial residual = 0, Final residual = 0, No Iterations 0
smoothSolver:  Solving for h, Initial residual = 0.004599452034, Final residual = 3.516917324e-06, No Iterations 5
Min/max T:268.3588306 308.0108106
GAMG:  Solving for p_rgh, Initial residual = 0.05036960926, Final residual = 0.0009500648153, No Iterations 2
diagonal:  Solving for rho, Initial residual = 0, Final residual = 0, No Iterations 0
time step continuity errors (cabin): sum local = 1.893728947e-05, global = 4.622749792e-07, cumulative = 0.0009980075844
GAMG:  Solving for p_rgh, Initial residual = 0.03267973096, Final residual = 6.745427771e-07, No Iterations 9
diagonal:  Solving for rho, Initial residual = 0, Final residual = 0, No Iterations 0
time step continuity errors (cabin): sum local = 1.343002849e-08, global = -3.339612381e-09, cumulative = 0.0009980042448
smoothSolver:  Solving for omega, Initial residual = 0.006093366424, Final residual = 4.242297069e-06, No Iterations 5
smoothSolver:  Solving for k, Initial residual = 0.0113982692, Final residual = 8.65827809e-06, No Iterations 5

Solving for solid region windshield
DICPCG:  Solving for h, Initial residual = 0.001248804351, Final residual = 8.136183754e-07, No Iterations 12
Min/max T:268.2681659 290.3433996
ExecutionTime = 937.67 s  ClockTime = 941 s

scalarTransport execute: H2O
smoothSolver:  Solving for H2O, Initial residual = 0.003386996521, Final residual = 1.681204725e-05, No Iterations 4

Region: cabin Courant Number mean: 0.6983866657 max: 11.97587543
Region: windshield Diffusion Number mean: 30.53642536 max: 1061.724252
deltaT = 0.01515151515
Time = 89.9697


Solving for fluid region cabin
diagonal:  Solving for rho, Initial residual = 0, Final residual = 0, No Iterations 0
smoothSolver:  Solving for h, Initial residual = 0.004597491255, Final residual = 9.73570366e-06, No Iterations 4
Min/max T:268.3620944 308.0116523
GAMG:  Solving for p_rgh, Initial residual = 0.05029424794, Final residual = 0.0009517437308, No Iterations 2
diagonal:  Solving for rho, Initial residual = 0, Final residual = 0, No Iterations 0
time step continuity errors (cabin): sum local = 1.896509922e-05, global = 4.127957548e-07, cumulative = 0.0009984170405
GAMG:  Solving for p_rgh, Initial residual = 0.03262699179, Final residual = 9.511297417e-07, No Iterations 10
diagonal:  Solving for rho, Initial residual = 0, Final residual = 0, No Iterations 0
time step continuity errors (cabin): sum local = 1.892142816e-08, global = 7.373909494e-09, cumulative = 0.0009984244144
smoothSolver:  Solving for omega, Initial residual = 0.006065564296, Final residual = 3.951100273e-06, No Iterations 5
smoothSolver:  Solving for k, Initial residual = 0.01133661433, Final residual = 7.820510862e-06, No Iterations 5

Solving for solid region windshield
DICPCG:  Solving for h, Initial residual = 0.001242537941, Final residual = 8.053939698e-07, No Iterations 12
Min/max T:268.2712954 290.3492674
ExecutionTime = 938.07 s  ClockTime = 941 s

scalarTransport execute: H2O
smoothSolver:  Solving for H2O, Initial residual = 0.003387008937, Final residual = 1.738070434e-05, No Iterations 4

Region: cabin Courant Number mean: 0.698433509 max: 11.97536544
Region: windshield Diffusion Number mean: 30.53642536 max: 1061.724252
deltaT = 0.01515151515
Time = 89.9848


Solving for fluid region cabin
diagonal:  Solving for rho, Initial residual = 0, Final residual = 0, No Iterations 0
smoothSolver:  Solving for h, Initial residual = 0.004575620351, Final residual = 3.345146335e-06, No Iterations 5
Min/max T:268.3653865 308.0107229
GAMG:  Solving for p_rgh, Initial residual = 0.05044136922, Final residual = 0.0009607784407, No Iterations 2
diagonal:  Solving for rho, Initial residual = 0, Final residual = 0, No Iterations 0
time step continuity errors (cabin): sum local = 1.911265209e-05, global = 4.966872373e-07, cumulative = 0.0009989211017
GAMG:  Solving for p_rgh, Initial residual = 0.03268552597, Final residual = 7.73811525e-07, No Iterations 10
diagonal:  Solving for rho, Initial residual = 0, Final residual = 0, No Iterations 0
time step continuity errors (cabin): sum local = 1.536868981e-08, global = 5.466033554e-09, cumulative = 0.0009989265677
smoothSolver:  Solving for omega, Initial residual = 0.005986953261, Final residual = 4.243512642e-06, No Iterations 5
smoothSolver:  Solving for k, Initial residual = 0.01127932476, Final residual = 9.217637624e-06, No Iterations 5

Solving for solid region windshield
DICPCG:  Solving for h, Initial residual = 0.00126493541, Final residual = 8.126003267e-07, No Iterations 12
Min/max T:268.2744517 290.3546705
ExecutionTime = 938.45 s  ClockTime = 941 s

scalarTransport execute: H2O
smoothSolver:  Solving for H2O, Initial residual = 0.003388512664, Final residual = 1.782795024e-05, No Iterations 4

Region: cabin Courant Number mean: 0.6984909074 max: 11.9746195
Region: windshield Diffusion Number mean: 30.53642536 max: 1061.724252
deltaT = 0.01515151515
Time = 90


Solving for fluid region cabin
diagonal:  Solving for rho, Initial residual = 0, Final residual = 0, No Iterations 0
smoothSolver:  Solving for h, Initial residual = 0.004573092728, Final residual = 3.634551425e-06, No Iterations 5
Min/max T:268.3687071 308.0116555
GAMG:  Solving for p_rgh, Initial residual = 0.05037583377, Final residual = 0.0009707986485, No Iterations 2
diagonal:  Solving for rho, Initial residual = 0, Final residual = 0, No Iterations 0
time step continuity errors (cabin): sum local = 1.928647399e-05, global = 4.807549014e-07, cumulative = 0.0009994073226
GAMG:  Solving for p_rgh, Initial residual = 0.0326829308, Final residual = 6.176732435e-07, No Iterations 8
diagonal:  Solving for rho, Initial residual = 0, Final residual = 0, No Iterations 0
time step continuity errors (cabin): sum local = 1.225780956e-08, global = 1.542704705e-09, cumulative = 0.0009994088653
smoothSolver:  Solving for omega, Initial residual = 0.005937668959, Final residual = 4.05672721e-06, No Iterations 5
smoothSolver:  Solving for k, Initial residual = 0.01123946231, Final residual = 7.73375553e-06, No Iterations 5

Solving for solid region windshield
DICPCG:  Solving for h, Initial residual = 0.001229235028, Final residual = 8.178634684e-07, No Iterations 12
Min/max T:268.2776351 290.3591383
ExecutionTime = 939.16 s  ClockTime = 942 s

scalarTransport execute: H2O
smoothSolver:  Solving for H2O, Initial residual = 0.003377238269, Final residual = 1.724571048e-05, No Iterations 4

End

Finalising parallel run
