/*---------------------------------------------------------------------------*\
| =========                 |                                                 |
| \\      /  F ield         | OpenFOAM: The Open Source CFD Toolbox           |
|  \\    /   O peration     | Version:  v1712                                 |
|   \\  /    A nd           | Web:      www.OpenFOAM.com                      |
|    \\/     M anipulation  |                                                 |
\*---------------------------------------------------------------------------*/
Build  : v1712
Arch   : "LSB;label=32;scalar=64"
Exec   : compressibleInterDyMFoam
Date   : Jan 05 2018
Time   : 06:45:28
Host   : "inabower-PC"
PID    : 14823
I/O    : uncollated
Case   : /media/inabower/3C9455F89455B55C/inabower/tutorials-v1712/multiphase/compressibleInterDyMFoam/laminar/sloshingTank2D
nProcs : 1
trapFpe: Floating point exception trapping enabled (FOAM_SIGFPE).
fileModificationChecking : Monitoring run-time modified files using timeStampMaster (fileModificationSkew 10)
allowSystemOperations : Allowing user-supplied system call operations

// * * * * * * * * * * * * * * * * * * * * * * * * * * * * * * * * * * * * * //
Create time

Create mesh for time = 0

Selecting dynamicFvMesh dynamicMotionSolverFvMesh
Selecting motion solver: solidBody
Selecting solid-body motion function SDA
Applying solid body motion to entire mesh

PIMPLE: Operating solver in PISO mode

Reading field p_rgh

Reading field U

Reading/calculating face flux field phi

Constructing twoPhaseMixtureThermo

Selecting thermodynamics package 
{
    type            heRhoThermo;
    mixture         pureMixture;
    transport       const;
    thermo          hConst;
    equationOfState perfectFluid;
    specie          specie;
    energy          sensibleInternalEnergy;
}

Selecting thermodynamics package 
{
    type            heRhoThermo;
    mixture         pureMixture;
    transport       const;
    thermo          hConst;
    equationOfState perfectGas;
    specie          specie;
    energy          sensibleInternalEnergy;
}

Reading thermophysical properties


Reading g

Reading hRef
Calculating field g.h

Selecting turbulence model type laminar
Selecting laminar stress model Stokes
Creating field kinetic energy K

No MRF models present

No finite volume options present

Reading/calculating face velocity Uf

Courant Number mean: 0 max: 0

Starting time loop

Reading surface description:
    walls

Courant Number mean: 0 max: 0
Interface Courant Number mean: 0 max: 0
deltaT = 0.000119904
Time = 0.000119904

PIMPLE: iteration 1
Execution time for mesh.update() = 0 s
MULES: Solving for alpha.water
Phase-1 volume fraction = 0.337209  Min(alpha.water) = 0  Max(alpha.water) = 1
MULES: Solving for alpha.water
Phase-1 volume fraction = 0.337209  Min(alpha.water) = 0  Max(alpha.water) = 1
MULES: Solving for alpha.water
Phase-1 volume fraction = 0.337209  Min(alpha.water) = 0  Max(alpha.water) = 1
smoothSolver:  Solving for T, Initial residual = 0.780863, Final residual = 0.647632, No Iterations 1000
GAMG:  Solving for p_rgh, Initial residual = 1, Final residual = 2.39385e-09, No Iterations 1
GAMGPCG:  Solving for p_rgh, Initial residual = 0.000848353, Final residual = 4.11047e-21, No Iterations 1
ExecutionTime = 0.08 s


Courant Number mean: 0.00146343 max: 0.00327483
Interface Courant Number mean: 0 max: 0
deltaT = 0.000143747
Time = 0.000263651

PIMPLE: iteration 1
Execution time for mesh.update() = 0 s
MULES: Solving for alpha.water
Phase-1 volume fraction = 0.337209  Min(alpha.water) = 0  Max(alpha.water) = 1
MULES: Solving for alpha.water
Phase-1 volume fraction = 0.337209  Min(alpha.water) = 0  Max(alpha.water) = 1
MULES: Solving for alpha.water
Phase-1 volume fraction = 0.337209  Min(alpha.water) = -4.43314e-23  Max(alpha.water) = 1
smoothSolver:  Solving for T, Initial residual = 1, Final residual = 1.94759e-10, No Iterations 2
GAMG:  Solving for p_rgh, Initial residual = 0.702164, Final residual = 7.15263e-10, No Iterations 1
GAMGPCG:  Solving for p_rgh, Initial residual = 0.00251276, Final residual = 1.19482e-19, No Iterations 1
ExecutionTime = 0.08 s


Courant Number mean: 0.00175269 max: 0.00392658
Interface Courant Number mean: 0 max: 0
deltaT = 0.000172696
Time = 0.000436346

PIMPLE: iteration 1
Execution time for mesh.update() = 0.01 s
MULES: Solving for alpha.water
Phase-1 volume fraction = 0.337209  Min(alpha.water) = -4.43079e-23  Max(alpha.water) = 1
MULES: Solving for alpha.water
Phase-1 volume fraction = 0.337209  Min(alpha.water) = -4.42844e-23  Max(alpha.water) = 1
MULES: Solving for alpha.water
Phase-1 volume fraction = 0.337209  Min(alpha.water) = -4.42608e-23  Max(alpha.water) = 1
smoothSolver:  Solving for T, Initial residual = 0.374264, Final residual = 6.11233e-11, No Iterations 2
GAMG:  Solving for p_rgh, Initial residual = 0.0162715, Final residual = 7.50681e-10, No Iterations 1
GAMGPCG:  Solving for p_rgh, Initial residual = 0.000970736, Final residual = 1.73384e-19, No Iterations 1
ExecutionTime = 0.09 s


Courant Number mean: 0.00210226 max: 0.00471876
Interface Courant Number mean: 0 max: 0
deltaT = 0.000207379
Time = 0.000643726

PIMPLE: iteration 1
Execution time for mesh.update() = 0 s
MULES: Solving for alpha.water
Phase-1 volume fraction = 0.337209  Min(alpha.water) = -7.46536e-23  Max(alpha.water) = 1
MULES: Solving for alpha.water
Phase-1 volume fraction = 0.337209  Min(alpha.water) = -2.55803e-22  Max(alpha.water) = 1
MULES: Solving for alpha.water
Phase-1 volume fraction = 0.337209  Min(alpha.water) = -2.55666e-22  Max(alpha.water) = 1
smoothSolver:  Solving for T, Initial residual = 0.259525, Final residual = 3.74837e-11, No Iterations 2
GAMG:  Solving for p_rgh, Initial residual = 0.00556516, Final residual = 1.1022e-09, No Iterations 1
GAMGPCG:  Solving for p_rgh, Initial residual = 0.000479371, Final residual = 8.87733e-19, No Iterations 1
ExecutionTime = 0.1 s


Courant Number mean: 0.00251846 max: 0.00566953
Interface Courant Number mean: 0 max: 0
deltaT = 0.000249274
Time = 0.000893

PIMPLE: iteration 1
Execution time for mesh.update() = 0 s
MULES: Solving for alpha.water
Phase-1 volume fraction = 0.337209  Min(alpha.water) = -2.55503e-22  Max(alpha.water) = 1
MULES: Solving for alpha.water
Phase-1 volume fraction = 0.337209  Min(alpha.water) = -8.70339e-22  Max(alpha.water) = 1
MULES: Solving for alpha.water
Phase-1 volume fraction = 0.337209  Min(alpha.water) = -1.22997e-21  Max(alpha.water) = 1
smoothSolver:  Solving for T, Initial residual = 0.203051, Final residual = 2.85999e-11, No Iterations 2
GAMG:  Solving for p_rgh, Initial residual = 0.00262438, Final residual = 2.19645e-09, No Iterations 1
GAMGPCG:  Solving for p_rgh, Initial residual = 0.000346283, Final residual = 4.00942e-17, No Iterations 1
ExecutionTime = 0.11 s


Courant Number mean: 0.00301845 max: 0.00682112
Interface Courant Number mean: 1.88853e-05 max: 0.00389749
deltaT = 0.000299433
Time = 0.00119243

PIMPLE: iteration 1
Execution time for mesh.update() = 0 s
MULES: Solving for alpha.water
Phase-1 volume fraction = 0.337209  Min(alpha.water) = -1.47753e-21  Max(alpha.water) = 1
MULES: Solving for alpha.water
Phase-1 volume fraction = 0.337209  Min(alpha.water) = -1.22781e-21  Max(alpha.water) = 1
MULES: Solving for alpha.water
Phase-1 volume fraction = 0.337209  Min(alpha.water) = -1.22674e-21  Max(alpha.water) = 1
smoothSolver:  Solving for T, Initial residual = 0.165249, Final residual = 2.71672e-11, No Iterations 2
GAMG:  Solving for p_rgh, Initial residual = 0.00182547, Final residual = 5.30272e-09, No Iterations 1
GAMGPCG:  Solving for p_rgh, Initial residual = 0.000284267, Final residual = 1.29448e-15, No Iterations 1
ExecutionTime = 0.12 s


Courant Number mean: 0.00361371 max: 0.00820573
Interface Courant Number mean: 5.22974e-05 max: 0.00474527
deltaT = 0.000358879
Time = 0.00155131

PIMPLE: iteration 1
Execution time for mesh.update() = 0 s
MULES: Solving for alpha.water
Phase-1 volume fraction = 0.337209  Min(alpha.water) = -4.76668e-21  Max(alpha.water) = 1
MULES: Solving for alpha.water
Phase-1 volume fraction = 0.337209  Min(alpha.water) = -3.53657e-21  Max(alpha.water) = 1
MULES: Solving for alpha.water
Phase-1 volume fraction = 0.337209  Min(alpha.water) = -3.53206e-21  Max(alpha.water) = 1
smoothSolver:  Solving for T, Initial residual = 0.138963, Final residual = 3.72802e-11, No Iterations 2
GAMG:  Solving for p_rgh, Initial residual = 0.00148476, Final residual = 1.69075e-08, No Iterations 1
GAMGPCG:  Solving for p_rgh, Initial residual = 0.000243946, Final residual = 4.61581e-14, No Iterations 1
ExecutionTime = 0.12 s


Courant Number mean: 0.00431303 max: 0.0098573
Interface Courant Number mean: 7.8385e-05 max: 0.00576816
deltaT = 0.000428749
Time = 0.00198006

PIMPLE: iteration 1
Execution time for mesh.update() = 0.01 s
MULES: Solving for alpha.water
Phase-1 volume fraction = 0.337209  Min(alpha.water) = -3.52669e-21  Max(alpha.water) = 1
MULES: Solving for alpha.water
Phase-1 volume fraction = 0.337209  Min(alpha.water) = -3.52133e-21  Max(alpha.water) = 1
MULES: Solving for alpha.water
Phase-1 volume fraction = 0.337209  Min(alpha.water) = -3.51599e-21  Max(alpha.water) = 1
smoothSolver:  Solving for T, Initial residual = 0.122056, Final residual = 5.69171e-11, No Iterations 2
GAMG:  Solving for p_rgh, Initial residual = 0.00130475, Final residual = 4.7161e-08, No Iterations 1
GAMGPCG:  Solving for p_rgh, Initial residual = 0.000220759, Final residual = 3.49908e-13, No Iterations 1
ExecutionTime = 0.13 s


Courant Number mean: 0.00512787 max: 0.011817
Interface Courant Number mean: 0.000103464 max: 0.00698527
deltaT = 0.000516343
Time = 0.0024964

PIMPLE: iteration 1
Execution time for mesh.update() = 0 s
MULES: Solving for alpha.water
Phase-1 volume fraction = 0.337208  Min(alpha.water) = -3.50977e-21  Max(alpha.water) = 1
MULES: Solving for alpha.water
Phase-1 volume fraction = 0.337208  Min(alpha.water) = -4.73492e-21  Max(alpha.water) = 1
MULES: Solving for alpha.water
Phase-1 volume fraction = 0.337208  Min(alpha.water) = -3.49742e-21  Max(alpha.water) = 1
smoothSolver:  Solving for T, Initial residual = 0.112789, Final residual = 1.00054e-10, No Iterations 2
GAMG:  Solving for p_rgh, Initial residual = 0.00120789, Final residual = 1.4312e-07, No Iterations 1
GAMGPCG:  Solving for p_rgh, Initial residual = 0.00021153, Final residual = 2.39283e-11, No Iterations 1
ExecutionTime = 0.14 s


Courant Number mean: 0.00614156 max: 0.0143055
Interface Courant Number mean: 0.000129744 max: 0.00850766
deltaT = 0.00061693
Time = 0.00311333

PIMPLE: iteration 1
Execution time for mesh.update() = 0 s
MULES: Solving for alpha.water
Phase-1 volume fraction = 0.337208  Min(alpha.water) = -3.49004e-21  Max(alpha.water) = 1
MULES: Solving for alpha.water
Phase-1 volume fraction = 0.337207  Min(alpha.water) = -3.48396e-21  Max(alpha.water) = 1
MULES: Solving for alpha.water
Phase-1 volume fraction = 0.337182  Min(alpha.water) = -3.47664e-21  Max(alpha.water) = 1
smoothSolver:  Solving for T, Initial residual = 0.104218, Final residual = 1.71824e-10, No Iterations 2
GAMG:  Solving for p_rgh, Initial residual = 0.00112308, Final residual = 3.89863e-07, No Iterations 1
GAMGPCG:  Solving for p_rgh, Initial residual = 0.000206444, Final residual = 3.10008e-10, No Iterations 1
ExecutionTime = 0.16 s


Courant Number mean: 0.00729572 max: 0.0172235
Interface Courant Number mean: 0.000171383 max: 0.0102789
deltaT = 0.000744233
Time = 0.00385757

PIMPLE: iteration 1
Execution time for mesh.update() = 0 s
MULES: Solving for alpha.water
Phase-1 volume fraction = 0.337182  Min(alpha.water) = -3.46777e-21  Max(alpha.water) = 1
MULES: Solving for alpha.water
Phase-1 volume fraction = 0.337181  Min(alpha.water) = -3.45895e-21  Max(alpha.water) = 1
MULES: Solving for alpha.water
Phase-1 volume fraction = 0.33718  Min(alpha.water) = -8.07433e-21  Max(alpha.water) = 1
smoothSolver:  Solving for T, Initial residual = 0.100001, Final residual = 2.89058e-10, No Iterations 2
GAMG:  Solving for p_rgh, Initial residual = 0.00106205, Final residual = 9.88368e-07, No Iterations 1
GAMGPCG:  Solving for p_rgh, Initial residual = 0.000208521, Final residual = 2.95498e-14, No Iterations 2
ExecutionTime = 0.17 s


Courant Number mean: 0.00874679 max: 0.0209986
Interface Courant Number mean: 0.000206289 max: 0.0124097
deltaT = 0.000887354
Time = 0.00474492

PIMPLE: iteration 1
Execution time for mesh.update() = 0 s
MULES: Solving for alpha.water
Phase-1 volume fraction = 0.33718  Min(alpha.water) = -4.37882e-21  Max(alpha.water) = 1
MULES: Solving for alpha.water
Phase-1 volume fraction = 0.33718  Min(alpha.water) = -1.85615e-20  Max(alpha.water) = 1
MULES: Solving for alpha.water
Phase-1 volume fraction = 0.337169  Min(alpha.water) = -4.36809e-21  Max(alpha.water) = 1
smoothSolver:  Solving for T, Initial residual = 0.0935079, Final residual = 3.95562e-10, No Iterations 2
GAMG:  Solving for p_rgh, Initial residual = 0.00101317, Final residual = 2.08431e-06, No Iterations 1
GAMGPCG:  Solving for p_rgh, Initial residual = 0.000213706, Final residual = 1.06554e-12, No Iterations 2
ExecutionTime = 0.18 s


Courant Number mean: 0.0103586 max: 0.0253972
Interface Courant Number mean: 0.000252659 max: 0.0147448
deltaT = 0.00105244
Time = 0.00579737

PIMPLE: iteration 1
Execution time for mesh.update() = 0 s
MULES: Solving for alpha.water
Phase-1 volume fraction = 0.33717  Min(alpha.water) = -2.04135e-20  Max(alpha.water) = 1
MULES: Solving for alpha.water
Phase-1 volume fraction = 0.337172  Min(alpha.water) = -7.00572e-21  Max(alpha.water) = 1
MULES: Solving for alpha.water
Phase-1 volume fraction = 0.337172  Min(alpha.water) = -4.35054e-21  Max(alpha.water) = 1
smoothSolver:  Solving for T, Initial residual = 0.0925058, Final residual = 6.29846e-10, No Iterations 2
GAMG:  Solving for p_rgh, Initial residual = 0.00103994, Final residual = 4.02388e-06, No Iterations 1
GAMGPCG:  Solving for p_rgh, Initial residual = 0.000223381, Final residual = 1.66117e-11, No Iterations 2
ExecutionTime = 0.19 s


Courant Number mean: 0.0121802 max: 0.0306787
Interface Courant Number mean: 0.00029217 max: 0.0173891
deltaT = 0.00126293
Time = 0.0070603

PIMPLE: iteration 1
Execution time for mesh.update() = 0 s
MULES: Solving for alpha.water
Phase-1 volume fraction = 0.337177  Min(alpha.water) = -2.41901e-20  Max(alpha.water) = 1
MULES: Solving for alpha.water
Phase-1 volume fraction = 0.337182  Min(alpha.water) = -1.30675e-20  Max(alpha.water) = 1
MULES: Solving for alpha.water
Phase-1 volume fraction = 0.337187  Min(alpha.water) = -4.3388e-21  Max(alpha.water) = 1
smoothSolver:  Solving for T, Initial residual = 0.102768, Final residual = 1.59862e-09, No Iterations 2
GAMG:  Solving for p_rgh, Initial residual = 0.00114735, Final residual = 7.68797e-06, No Iterations 1
GAMGPCG:  Solving for p_rgh, Initial residual = 0.000251109, Final residual = 1.7365e-10, No Iterations 2
ExecutionTime = 0.19 s


Courant Number mean: 0.014448 max: 0.0376442
Interface Courant Number mean: 0.000321369 max: 0.0207881
deltaT = 0.00153356
Time = 0.00859386

PIMPLE: iteration 1
Execution time for mesh.update() = 0.01 s
MULES: Solving for alpha.water
Phase-1 volume fraction = 0.337201  Min(alpha.water) = -4.60648e-21  Max(alpha.water) = 1
MULES: Solving for alpha.water
Phase-1 volume fraction = 0.337215  Min(alpha.water) = -4.59458e-21  Max(alpha.water) = 1
MULES: Solving for alpha.water
Phase-1 volume fraction = 0.33723  Min(alpha.water) = -8.02142e-21  Max(alpha.water) = 1
smoothSolver:  Solving for T, Initial residual = 0.128964, Final residual = 4.32391e-09, No Iterations 2
GAMG:  Solving for p_rgh, Initial residual = 0.00130826, Final residual = 1.1728e-05, No Iterations 1
GAMGPCG:  Solving for p_rgh, Initial residual = 0.000314537, Final residual = 1.14191e-09, No Iterations 2
ExecutionTime = 0.21 s


Courant Number mean: 0.0172667 max: 0.0469046
Interface Courant Number mean: 0.000331062 max: 0.0251438
deltaT = 0.00180027
Time = 0.0103941

PIMPLE: iteration 1
Execution time for mesh.update() = 0 s
MULES: Solving for alpha.water
Phase-1 volume fraction = 0.337262  Min(alpha.water) = -7.19964e-20  Max(alpha.water) = 1
MULES: Solving for alpha.water
Phase-1 volume fraction = 0.337294  Min(alpha.water) = -4.54851e-21  Max(alpha.water) = 1
MULES: Solving for alpha.water
Phase-1 volume fraction = 0.337326  Min(alpha.water) = -4.53157e-21  Max(alpha.water) = 1
smoothSolver:  Solving for T, Initial residual = 0.121616, Final residual = 6.1239e-09, No Iterations 2
GAMG:  Solving for p_rgh, Initial residual = 0.00161143, Final residual = 9.67459e-07, No Iterations 2
GAMGPCG:  Solving for p_rgh, Initial residual = 0.000400459, Final residual = 4.83466e-11, No Iterations 3
ExecutionTime = 0.21 s


Courant Number mean: 0.0199066 max: 0.0566284
Interface Courant Number mean: 0.000310066 max: 0.029378
deltaT = 0.00220033
Time = 0.0125945

PIMPLE: iteration 1
Execution time for mesh.update() = 0.01 s
MULES: Solving for alpha.water
Phase-1 volume fraction = 0.337389  Min(alpha.water) = -4.51151e-21  Max(alpha.water) = 1
MULES: Solving for alpha.water
Phase-1 volume fraction = 0.337451  Min(alpha.water) = -1.74741e-19  Max(alpha.water) = 1
MULES: Solving for alpha.water
Phase-1 volume fraction = 0.337513  Min(alpha.water) = -1.25102e-19  Max(alpha.water) = 1
smoothSolver:  Solving for T, Initial residual = 0.0862255, Final residual = 6.62033e-09, No Iterations 2
GAMG:  Solving for p_rgh, Initial residual = 0.00249964, Final residual = 4.35674e-06, No Iterations 2
GAMGPCG:  Solving for p_rgh, Initial residual = 0.000670288, Final residual = 6.53514e-10, No Iterations 3
ExecutionTime = 0.23 s


Courant Number mean: 0.0241629 max: 0.0714989
Interface Courant Number mean: 0.000389242 max: 0.0356332
deltaT = 0.00267182
Time = 0.0152663

PIMPLE: iteration 1
Execution time for mesh.update() = 0 s
MULES: Solving for alpha.water
Phase-1 volume fraction = 0.337616  Min(alpha.water) = -4.45424e-21  Max(alpha.water) = 1
MULES: Solving for alpha.water
Phase-1 volume fraction = 0.337718  Min(alpha.water) = -4.43678e-21  Max(alpha.water) = 1
MULES: Solving for alpha.water
Phase-1 volume fraction = 0.337819  Min(alpha.water) = -4.41953e-21  Max(alpha.water) = 1
smoothSolver:  Solving for T, Initial residual = 0.05258, Final residual = 6.74894e-09, No Iterations 2
GAMG:  Solving for p_rgh, Initial residual = 0.0043766, Final residual = 1.31076e-05, No Iterations 2
GAMGPCG:  Solving for p_rgh, Initial residual = 0.00171905, Final residual = 1.6023e-10, No Iterations 4
ExecutionTime = 0.24 s


Courant Number mean: 0.0289995 max: 0.090081
Interface Courant Number mean: 0.000484577 max: 0.0426521
deltaT = 0.00315761
Time = 0.0184239

PIMPLE: iteration 1
Execution time for mesh.update() = 0 s
MULES: Solving for alpha.water
Phase-1 volume fraction = 0.337952  Min(alpha.water) = -2.44672e-19  Max(alpha.water) = 1
MULES: Solving for alpha.water
Phase-1 volume fraction = 0.338084  Min(alpha.water) = -1.25122e-19  Max(alpha.water) = 1
MULES: Solving for alpha.water
Phase-1 volume fraction = 0.338214  Min(alpha.water) = -4.43379e-21  Max(alpha.water) = 1
smoothSolver:  Solving for T, Initial residual = 0.0330432, Final residual = 7.57623e-09, No Iterations 2
GAMG:  Solving for p_rgh, Initial residual = 0.0090051, Final residual = 4.96535e-05, No Iterations 2
GAMGPCG:  Solving for p_rgh, Initial residual = 0.00304197, Final residual = 1.98801e-09, No Iterations 4
ExecutionTime = 0.25 s


Courant Number mean: 0.0334551 max: 0.110317
Interface Courant Number mean: 0.000589426 max: 0.0491409
deltaT = 0.00394701
Time = 0.0223709

PIMPLE: iteration 1
Execution time for mesh.update() = 0 s
MULES: Solving for alpha.water
Phase-1 volume fraction = 0.338376  Min(alpha.water) = -4.39113e-21  Max(alpha.water) = 1
MULES: Solving for alpha.water
Phase-1 volume fraction = 0.338534  Min(alpha.water) = -4.34953e-21  Max(alpha.water) = 1
MULES: Solving for alpha.water
Phase-1 volume fraction = 0.33869  Min(alpha.water) = -4.30888e-21  Max(alpha.water) = 1
smoothSolver:  Solving for T, Initial residual = 0.022847, Final residual = 3.30376e-11, No Iterations 3
GAMG:  Solving for p_rgh, Initial residual = 0.0164529, Final residual = 0.000128256, No Iterations 2
GAMGPCG:  Solving for p_rgh, Initial residual = 0.00248787, Final residual = 9.99152e-11, No Iterations 5
ExecutionTime = 0.26 s


Courant Number mean: 0.0402741 max: 0.141192
Interface Courant Number mean: 0.000755232 max: 0.0574923
deltaT = 0.00460485
Time = 0.0269758

PIMPLE: iteration 1
Execution time for mesh.update() = 0 s
MULES: Solving for alpha.water
Phase-1 volume fraction = 0.338816  Min(alpha.water) = -1.06444e-19  Max(alpha.water) = 1
MULES: Solving for alpha.water
Phase-1 volume fraction = 0.338941  Min(alpha.water) = -1.8101e-19  Max(alpha.water) = 1
MULES: Solving for alpha.water
Phase-1 volume fraction = 0.339064  Min(alpha.water) = -1.0383e-19  Max(alpha.water) = 1
smoothSolver:  Solving for T, Initial residual = 0.0155286, Final residual = 6.9486e-11, No Iterations 3
GAMG:  Solving for p_rgh, Initial residual = 0.00978889, Final residual = 6.01893e-05, No Iterations 2
GAMGPCG:  Solving for p_rgh, Initial residual = 0.00229873, Final residual = 1.1226e-10, No Iterations 5
ExecutionTime = 0.27 s


Courant Number mean: 0.0449552 max: 0.164369
Interface Courant Number mean: 0.000833358 max: 0.0602203
deltaT = 0.00575606
Time = 0.0327318

PIMPLE: iteration 1
Execution time for mesh.update() = 0 s
MULES: Solving for alpha.water
Phase-1 volume fraction = 0.339172  Min(alpha.water) = -1.02439e-19  Max(alpha.water) = 1
MULES: Solving for alpha.water
Phase-1 volume fraction = 0.339277  Min(alpha.water) = -5.26344e-20  Max(alpha.water) = 1
MULES: Solving for alpha.water
Phase-1 volume fraction = 0.339379  Min(alpha.water) = -1.9991e-19  Max(alpha.water) = 1
smoothSolver:  Solving for T, Initial residual = 0.0141341, Final residual = 1.89536e-10, No Iterations 3
GAMG:  Solving for p_rgh, Initial residual = 0.00914141, Final residual = 6.47264e-05, No Iterations 2
GAMGPCG:  Solving for p_rgh, Initial residual = 0.00252014, Final residual = 1.0834e-09, No Iterations 5
ExecutionTime = 0.28 s


Courant Number mean: 0.0533112 max: 0.200488
Interface Courant Number mean: 0.000975351 max: 0.0665179
deltaT = 0.00575606
Time = 0.0384879

PIMPLE: iteration 1
Execution time for mesh.update() = 0.01 s
MULES: Solving for alpha.water
Phase-1 volume fraction = 0.339408  Min(alpha.water) = -1.06329e-19  Max(alpha.water) = 1
MULES: Solving for alpha.water
Phase-1 volume fraction = 0.339419  Min(alpha.water) = -1.05358e-19  Max(alpha.water) = 1
MULES: Solving for alpha.water
Phase-1 volume fraction = 0.339338  Min(alpha.water) = -1.04396e-19  Max(alpha.water) = 1
smoothSolver:  Solving for T, Initial residual = 0.0120037, Final residual = 5.76371e-11, No Iterations 3
GAMG:  Solving for p_rgh, Initial residual = 0.0100294, Final residual = 7.3745e-05, No Iterations 2
GAMGPCG:  Solving for p_rgh, Initial residual = 0.00391025, Final residual = 1.28412e-09, No Iterations 5
ExecutionTime = 0.29 s


Courant Number mean: 0.0510856 max: 0.196614
Interface Courant Number mean: 0.000992105 max: 0.0591492
deltaT = 0.00575606
Time = 0.0442439

PIMPLE: iteration 1
Execution time for mesh.update() = 0.01 s
MULES: Solving for alpha.water
Phase-1 volume fraction = 0.339393  Min(alpha.water) = -1.03336e-19  Max(alpha.water) = 1
MULES: Solving for alpha.water
Phase-1 volume fraction = 0.339429  Min(alpha.water) = -1.02286e-19  Max(alpha.water) = 1
MULES: Solving for alpha.water
Phase-1 volume fraction = 0.339453  Min(alpha.water) = -1.01246e-19  Max(alpha.water) = 1
smoothSolver:  Solving for T, Initial residual = 0.0108577, Final residual = 4.38485e-11, No Iterations 3
GAMG:  Solving for p_rgh, Initial residual = 0.0138335, Final residual = 0.000122416, No Iterations 2
GAMGPCG:  Solving for p_rgh, Initial residual = 0.00396073, Final residual = 5.3701e-10, No Iterations 5
ExecutionTime = 0.31 s


Courant Number mean: 0.049285 max: 0.193837
Interface Courant Number mean: 0.000972953 max: 0.057714
deltaT = 0.00575606
Time = 0.05

PIMPLE: iteration 1
Execution time for mesh.update() = 0 s
MULES: Solving for alpha.water
Phase-1 volume fraction = 0.339443  Min(alpha.water) = -1.04227e-19  Max(alpha.water) = 1
MULES: Solving for alpha.water
Phase-1 volume fraction = 0.339432  Min(alpha.water) = -1.04331e-19  Max(alpha.water) = 1
MULES: Solving for alpha.water
Phase-1 volume fraction = 0.33942  Min(alpha.water) = -1.04448e-19  Max(alpha.water) = 1
smoothSolver:  Solving for T, Initial residual = 0.0101, Final residual = 4.97e-11, No Iterations 3
GAMG:  Solving for p_rgh, Initial residual = 0.0203842, Final residual = 0.000161756, No Iterations 2
GAMGPCG:  Solving for p_rgh, Initial residual = 0.00736563, Final residual = 1.06506e-09, No Iterations 5
ExecutionTime = 0.34 s


Courant Number mean: 0.0475426 max: 0.189975
Interface Courant Number mean: 0.00096839 max: 0.0566441
deltaT = 0.00714286
Time = 0.0571429

PIMPLE: iteration 1
Execution time for mesh.update() = 0 s
MULES: Solving for alpha.water
Phase-1 volume fraction = 0.339402  Min(alpha.water) = -1.04002e-19  Max(alpha.water) = 1
MULES: Solving for alpha.water
Phase-1 volume fraction = 0.339381  Min(alpha.water) = -1.27005e-19  Max(alpha.water) = 1
MULES: Solving for alpha.water
Phase-1 volume fraction = 0.339357  Min(alpha.water) = -1.03148e-19  Max(alpha.water) = 1
smoothSolver:  Solving for T, Initial residual = 0.0110575, Final residual = 3.26843e-10, No Iterations 3
GAMG:  Solving for p_rgh, Initial residual = 0.0411451, Final residual = 0.000335981, No Iterations 2
GAMGPCG:  Solving for p_rgh, Initial residual = 0.0155078, Final residual = 1.72982e-10, No Iterations 6
ExecutionTime = 0.36 s


Courant Number mean: 0.0565995 max: 0.223399
Interface Courant Number mean: 0.00114955 max: 0.0681446
deltaT = 0.00857143
Time = 0.0657143

PIMPLE: iteration 1
Execution time for mesh.update() = 0 s
MULES: Solving for alpha.water
Phase-1 volume fraction = 0.339338  Min(alpha.water) = -1.02561e-19  Max(alpha.water) = 1
MULES: Solving for alpha.water
Phase-1 volume fraction = 0.339312  Min(alpha.water) = -1.0099e-19  Max(alpha.water) = 1
MULES: Solving for alpha.water
Phase-1 volume fraction = 0.339279  Min(alpha.water) = -9.94471e-20  Max(alpha.water) = 1
smoothSolver:  Solving for T, Initial residual = 0.0101884, Final residual = 1.15987e-09, No Iterations 3
GAMG:  Solving for p_rgh, Initial residual = 0.0880267, Final residual = 0.000385683, No Iterations 3
GAMGPCG:  Solving for p_rgh, Initial residual = 0.0368655, Final residual = 9.30686e-10, No Iterations 6
ExecutionTime = 0.37 s


Courant Number mean: 0.0653792 max: 0.23745
Interface Courant Number mean: 0.0014293 max: 0.0794476
deltaT = 0.0114286
Time = 0.0771429

PIMPLE: iteration 1
Execution time for mesh.update() = 0 s
MULES: Solving for alpha.water
Phase-1 volume fraction = 0.339253  Min(alpha.water) = -9.72208e-20  Max(alpha.water) = 1
MULES: Solving for alpha.water
Phase-1 volume fraction = 0.339223  Min(alpha.water) = -2.86174e-19  Max(alpha.water) = 1
MULES: Solving for alpha.water
Phase-1 volume fraction = 0.33919  Min(alpha.water) = -8.29573e-20  Max(alpha.water) = 1
smoothSolver:  Solving for T, Initial residual = 0.00936398, Final residual = 4.03528e-09, No Iterations 3
GAMG:  Solving for p_rgh, Initial residual = 0.105474, Final residual = 0.000869051, No Iterations 3
GAMGPCG:  Solving for p_rgh, Initial residual = 0.0267254, Final residual = 1.9994e-09, No Iterations 6
ExecutionTime = 0.38 s


Courant Number mean: 0.0855847 max: 0.250655
Interface Courant Number mean: 0.00203905 max: 0.109574
deltaT = 0.0114286
Time = 0.0885714

PIMPLE: iteration 1
Execution time for mesh.update() = 0.01 s
MULES: Solving for alpha.water
Phase-1 volume fraction = 0.339187  Min(alpha.water) = -2.24088e-19  Max(alpha.water) = 1
MULES: Solving for alpha.water
Phase-1 volume fraction = 0.339185  Min(alpha.water) = -2.19242e-19  Max(alpha.water) = 1
MULES: Solving for alpha.water
Phase-1 volume fraction = 0.339182  Min(alpha.water) = -2.14615e-19  Max(alpha.water) = 1
smoothSolver:  Solving for T, Initial residual = 0.00800085, Final residual = 5.70429e-10, No Iterations 3
GAMG:  Solving for p_rgh, Initial residual = 0.091335, Final residual = 0.000591681, No Iterations 3
GAMGPCG:  Solving for p_rgh, Initial residual = 0.029216, Final residual = 1.06734e-09, No Iterations 7
ExecutionTime = 0.39 s


Courant Number mean: 0.0857245 max: 0.197619
Interface Courant Number mean: 0.0022867 max: 0.112335
deltaT = 0.0114286
Time = 0.1

PIMPLE: iteration 1
Execution time for mesh.update() = 0.01 s
MULES: Solving for alpha.water
Phase-1 volume fraction = 0.339189  Min(alpha.water) = -2.47267e-19  Max(alpha.water) = 1
MULES: Solving for alpha.water
Phase-1 volume fraction = 0.339195  Min(alpha.water) = -2.09983e-19  Max(alpha.water) = 1
MULES: Solving for alpha.water
Phase-1 volume fraction = 0.339202  Min(alpha.water) = -2.0446e-19  Max(alpha.water) = 1
smoothSolver:  Solving for T, Initial residual = 0.012628, Final residual = 2.52539e-10, No Iterations 3
GAMG:  Solving for p_rgh, Initial residual = 0.278556, Final residual = 0.000892632, No Iterations 3
GAMGPCG:  Solving for p_rgh, Initial residual = 0.0296494, Final residual = 7.37938e-10, No Iterations 6
ExecutionTime = 0.44 s


Courant Number mean: 0.085436 max: 0.177519
Interface Courant Number mean: 0.00229793 max: 0.111182
deltaT = 0.0125
Time = 0.1125

PIMPLE: iteration 1
Execution time for mesh.update() = 0 s
MULES: Solving for alpha.water
Phase-1 volume fraction = 0.339206  Min(alpha.water) = -2.74983e-19  Max(alpha.water) = 1
MULES: Solving for alpha.water
Phase-1 volume fraction = 0.339209  Min(alpha.water) = -1.935e-19  Max(alpha.water) = 1
MULES: Solving for alpha.water
Phase-1 volume fraction = 0.339213  Min(alpha.water) = -2.25717e-19  Max(alpha.water) = 1
smoothSolver:  Solving for T, Initial residual = 0.0180325, Final residual = 4.48722e-10, No Iterations 3
GAMG:  Solving for p_rgh, Initial residual = 0.314504, Final residual = 0.00091694, No Iterations 3
GAMGPCG:  Solving for p_rgh, Initial residual = 0.028788, Final residual = 8.32975e-10, No Iterations 6
ExecutionTime = 0.45 s


Courant Number mean: 0.0916413 max: 0.1941
Interface Courant Number mean: 0.00259039 max: 0.119662
deltaT = 0.01875
Time = 0.13125

PIMPLE: iteration 1
Execution time for mesh.update() = 0 s
MULES: Solving for alpha.water
Phase-1 volume fraction = 0.339213  Min(alpha.water) = -1.84596e-19  Max(alpha.water) = 1
MULES: Solving for alpha.water
Phase-1 volume fraction = 0.339212  Min(alpha.water) = -6.1594e-19  Max(alpha.water) = 1
MULES: Solving for alpha.water
Phase-1 volume fraction = 0.339211  Min(alpha.water) = -1.75701e-19  Max(alpha.water) = 1
smoothSolver:  Solving for T, Initial residual = 0.0296332, Final residual = 7.89834e-09, No Iterations 3
GAMG:  Solving for p_rgh, Initial residual = 0.328722, Final residual = 0.00109319, No Iterations 3
GAMGPCG:  Solving for p_rgh, Initial residual = 0.0364437, Final residual = 4.26e-10, No Iterations 7
ExecutionTime = 0.47 s


Courant Number mean: 0.13343 max: 0.352023
Interface Courant Number mean: 0.00363497 max: 0.171353
deltaT = 0.01875
Time = 0.15

PIMPLE: iteration 1
Execution time for mesh.update() = 0 s
MULES: Solving for alpha.water
Phase-1 volume fraction = 0.339209  Min(alpha.water) = -5.93973e-19  Max(alpha.water) = 1
MULES: Solving for alpha.water
Phase-1 volume fraction = 0.339207  Min(alpha.water) = -1.6645e-19  Max(alpha.water) = 1
MULES: Solving for alpha.water
Phase-1 volume fraction = 0.339204  Min(alpha.water) = -1.59881e-19  Max(alpha.water) = 1
smoothSolver:  Solving for T, Initial residual = 0.0230697, Final residual = 7.9563e-09, No Iterations 3
GAMG:  Solving for p_rgh, Initial residual = 0.175229, Final residual = 0.00116256, No Iterations 3
GAMGPCG:  Solving for p_rgh, Initial residual = 0.0318954, Final residual = 5.52342e-10, No Iterations 7
ExecutionTime = 0.52 s


Courant Number mean: 0.132348 max: 0.414393
Interface Courant Number mean: 0.00331764 max: 0.169053
deltaT = 0.025
Time = 0.175

PIMPLE: iteration 1
Execution time for mesh.update() = 0 s
MULES: Solving for alpha.water
Phase-1 volume fraction = 0.339203  Min(alpha.water) = -5.26128e-19  Max(alpha.water) = 1
MULES: Solving for alpha.water
Phase-1 volume fraction = 0.339201  Min(alpha.water) = -2.27511e-19  Max(alpha.water) = 1
MULES: Solving for alpha.water
Phase-1 volume fraction = 0.339198  Min(alpha.water) = -2.72893e-19  Max(alpha.water) = 1
smoothSolver:  Solving for T, Initial residual = 0.0156766, Final residual = 4.8517e-09, No Iterations 4
GAMG:  Solving for p_rgh, Initial residual = 0.114632, Final residual = 0.000986003, No Iterations 4
GAMGPCG:  Solving for p_rgh, Initial residual = 0.0321591, Final residual = 4.99317e-10, No Iterations 7
ExecutionTime = 0.53 s


Courant Number mean: 0.181146 max: 0.625008
Interface Courant Number mean: 0.00443372 max: 0.220824
deltaT = 0.025
Time = 0.2

PIMPLE: iteration 1
Execution time for mesh.update() = 0 s
MULES: Solving for alpha.water
Phase-1 volume fraction = 0.339198  Min(alpha.water) = -2.20721e-19  Max(alpha.water) = 1
MULES: Solving for alpha.water
Phase-1 volume fraction = 0.339198  Min(alpha.water) = -2.17587e-19  Max(alpha.water) = 1
MULES: Solving for alpha.water
Phase-1 volume fraction = 0.339198  Min(alpha.water) = -2.14463e-19  Max(alpha.water) = 1
smoothSolver:  Solving for T, Initial residual = 0.00773327, Final residual = 8.66481e-10, No Iterations 5
GAMG:  Solving for p_rgh, Initial residual = 0.15277, Final residual = 0.000888587, No Iterations 3
GAMGPCG:  Solving for p_rgh, Initial residual = 0.0298039, Final residual = 1.67413e-09, No Iterations 7
ExecutionTime = 0.57 s


Courant Number mean: 0.182428 max: 0.64689
Interface Courant Number mean: 0.00442765 max: 0.211578
deltaT = 0.0166667
Time = 0.216667

PIMPLE: iteration 1
Execution time for mesh.update() = 0 s
MULES: Solving for alpha.water
Phase-1 volume fraction = 0.339197  Min(alpha.water) = -2.12737e-19  Max(alpha.water) = 1
MULES: Solving for alpha.water
Phase-1 volume fraction = 0.339197  Min(alpha.water) = -2.11023e-19  Max(alpha.water) = 1
MULES: Solving for alpha.water
Phase-1 volume fraction = 0.339198  Min(alpha.water) = -9.82257e-19  Max(alpha.water) = 1
smoothSolver:  Solving for T, Initial residual = 0.0109012, Final residual = 8.28335e-09, No Iterations 3
GAMG:  Solving for p_rgh, Initial residual = 0.181214, Final residual = 0.00105388, No Iterations 3
GAMGPCG:  Solving for p_rgh, Initial residual = 0.0320296, Final residual = 2.29534e-10, No Iterations 7
ExecutionTime = 0.59 s


Courant Number mean: 0.118253 max: 0.422423
Interface Courant Number mean: 0.00290238 max: 0.134663
deltaT = 0.0166667
Time = 0.233333

PIMPLE: iteration 1
Execution time for mesh.update() = 0 s
MULES: Solving for alpha.water
Phase-1 volume fraction = 0.339197  Min(alpha.water) = -2.07826e-19  Max(alpha.water) = 1
MULES: Solving for alpha.water
Phase-1 volume fraction = 0.339197  Min(alpha.water) = -2.06342e-19  Max(alpha.water) = 1
MULES: Solving for alpha.water
Phase-1 volume fraction = 0.339198  Min(alpha.water) = -2.81029e-19  Max(alpha.water) = 1
smoothSolver:  Solving for T, Initial residual = 0.012454, Final residual = 8.26846e-09, No Iterations 3
GAMG:  Solving for p_rgh, Initial residual = 0.218683, Final residual = 0.000468665, No Iterations 3
GAMGPCG:  Solving for p_rgh, Initial residual = 0.0366903, Final residual = 3.43597e-10, No Iterations 7
ExecutionTime = 0.6 s


Courant Number mean: 0.11293 max: 0.403
Interface Courant Number mean: 0.00280288 max: 0.129546
deltaT = 0.0166667
Time = 0.25

PIMPLE: iteration 1
Execution time for mesh.update() = 0 s
MULES: Solving for alpha.water
Phase-1 volume fraction = 0.339197  Min(alpha.water) = -3.74475e-19  Max(alpha.water) = 1
MULES: Solving for alpha.water
Phase-1 volume fraction = 0.339198  Min(alpha.water) = -2.02028e-19  Max(alpha.water) = 1
MULES: Solving for alpha.water
Phase-1 volume fraction = 0.339198  Min(alpha.water) = -2.00623e-19  Max(alpha.water) = 1
smoothSolver:  Solving for T, Initial residual = 0.0117303, Final residual = 5.97026e-09, No Iterations 3
GAMG:  Solving for p_rgh, Initial residual = 0.206591, Final residual = 0.000533416, No Iterations 3
GAMGPCG:  Solving for p_rgh, Initial residual = 0.0283183, Final residual = 1.44197e-09, No Iterations 6
ExecutionTime = 0.64 s


Courant Number mean: 0.105057 max: 0.371912
Interface Courant Number mean: 0.00268857 max: 0.122065
deltaT = 0.0166667
Time = 0.266667

PIMPLE: iteration 1
Execution time for mesh.update() = 0 s
MULES: Solving for alpha.water
Phase-1 volume fraction = 0.339198  Min(alpha.water) = -1.99144e-19  Max(alpha.water) = 1
MULES: Solving for alpha.water
Phase-1 volume fraction = 0.339198  Min(alpha.water) = -1.97674e-19  Max(alpha.water) = 1
MULES: Solving for alpha.water
Phase-1 volume fraction = 0.339199  Min(alpha.water) = -1.96216e-19  Max(alpha.water) = 1
smoothSolver:  Solving for T, Initial residual = 0.00894562, Final residual = 2.89773e-09, No Iterations 3
GAMG:  Solving for p_rgh, Initial residual = 0.122133, Final residual = 0.00113362, No Iterations 2
GAMGPCG:  Solving for p_rgh, Initial residual = 0.0161476, Final residual = 1.88275e-09, No Iterations 6
ExecutionTime = 0.65 s


Courant Number mean: 0.0962109 max: 0.333521
Interface Courant Number mean: 0.00258512 max: 0.11523
deltaT = 0.0166667
Time = 0.283333

PIMPLE: iteration 1
Execution time for mesh.update() = 0.01 s
MULES: Solving for alpha.water
Phase-1 volume fraction = 0.339198  Min(alpha.water) = -2.22197e-19  Max(alpha.water) = 1
MULES: Solving for alpha.water
Phase-1 volume fraction = 0.339198  Min(alpha.water) = -4.98725e-19  Max(alpha.water) = 1
MULES: Solving for alpha.water
Phase-1 volume fraction = 0.339198  Min(alpha.water) = -4.02286e-19  Max(alpha.water) = 1
smoothSolver:  Solving for T, Initial residual = 0.00462693, Final residual = 6.86112e-10, No Iterations 3
GAMG:  Solving for p_rgh, Initial residual = 0.0461919, Final residual = 0.000307315, No Iterations 3
GAMGPCG:  Solving for p_rgh, Initial residual = 0.0068158, Final residual = 6.2762e-10, No Iterations 6
ExecutionTime = 0.66 s


Courant Number mean: 0.0877084 max: 0.293318
Interface Courant Number mean: 0.00255301 max: 0.107885
deltaT = 0.0166667
Time = 0.3

PIMPLE: iteration 1
Execution time for mesh.update() = 0.01 s
MULES: Solving for alpha.water
Phase-1 volume fraction = 0.339198  Min(alpha.water) = -5.1377e-19  Max(alpha.water) = 1
MULES: Solving for alpha.water
Phase-1 volume fraction = 0.339198  Min(alpha.water) = -4.51467e-19  Max(alpha.water) = 1
MULES: Solving for alpha.water
Phase-1 volume fraction = 0.339198  Min(alpha.water) = -1.86136e-19  Max(alpha.water) = 1
smoothSolver:  Solving for T, Initial residual = 0.00142238, Final residual = 1.40159e-10, No Iterations 3
GAMG:  Solving for p_rgh, Initial residual = 0.0868845, Final residual = 0.00038856, No Iterations 3
GAMGPCG:  Solving for p_rgh, Initial residual = 0.0113682, Final residual = 1.60645e-09, No Iterations 6
ExecutionTime = 0.71 s


Courant Number mean: 0.0801807 max: 0.256664
Interface Courant Number mean: 0.00240503 max: 0.100437
deltaT = 0.0166667
Time = 0.316667

PIMPLE: iteration 1
Execution time for mesh.update() = 0 s
MULES: Solving for alpha.water
Phase-1 volume fraction = 0.339198  Min(alpha.water) = -2.49865e-19  Max(alpha.water) = 1
MULES: Solving for alpha.water
Phase-1 volume fraction = 0.339197  Min(alpha.water) = -1.82407e-19  Max(alpha.water) = 1
MULES: Solving for alpha.water
Phase-1 volume fraction = 0.339197  Min(alpha.water) = -1.80559e-19  Max(alpha.water) = 1
smoothSolver:  Solving for T, Initial residual = 0.00489094, Final residual = 2.0058e-10, No Iterations 3
GAMG:  Solving for p_rgh, Initial residual = 0.142476, Final residual = 0.000378811, No Iterations 3
GAMGPCG:  Solving for p_rgh, Initial residual = 0.0202706, Final residual = 3.41503e-10, No Iterations 7
ExecutionTime = 0.72 s


Courant Number mean: 0.0736347 max: 0.226911
Interface Courant Number mean: 0.0022611 max: 0.0935968
deltaT = 0.0166667
Time = 0.333333

PIMPLE: iteration 1
Execution time for mesh.update() = 0.01 s
MULES: Solving for alpha.water
Phase-1 volume fraction = 0.339197  Min(alpha.water) = -1.78706e-19  Max(alpha.water) = 1
MULES: Solving for alpha.water
Phase-1 volume fraction = 0.339196  Min(alpha.water) = -1.76864e-19  Max(alpha.water) = 1
MULES: Solving for alpha.water
Phase-1 volume fraction = 0.339196  Min(alpha.water) = -1.75031e-19  Max(alpha.water) = 1
smoothSolver:  Solving for T, Initial residual = 0.00705098, Final residual = 1.32123e-10, No Iterations 3
GAMG:  Solving for p_rgh, Initial residual = 0.174567, Final residual = 0.000365568, No Iterations 3
GAMGPCG:  Solving for p_rgh, Initial residual = 0.0240411, Final residual = 3.04026e-10, No Iterations 7
ExecutionTime = 0.74 s


Courant Number mean: 0.0676941 max: 0.205556
Interface Courant Number mean: 0.00216587 max: 0.0865144
deltaT = 0.0166667
Time = 0.35

PIMPLE: iteration 1
Execution time for mesh.update() = 0 s
MULES: Solving for alpha.water
Phase-1 volume fraction = 0.339196  Min(alpha.water) = -9.56217e-19  Max(alpha.water) = 1
MULES: Solving for alpha.water
Phase-1 volume fraction = 0.339195  Min(alpha.water) = -1.71624e-19  Max(alpha.water) = 1
MULES: Solving for alpha.water
Phase-1 volume fraction = 0.339195  Min(alpha.water) = -7.3566e-19  Max(alpha.water) = 1
smoothSolver:  Solving for T, Initial residual = 0.00748801, Final residual = 7.41873e-11, No Iterations 3
GAMG:  Solving for p_rgh, Initial residual = 0.150769, Final residual = 0.000407493, No Iterations 3
GAMGPCG:  Solving for p_rgh, Initial residual = 0.0185182, Final residual = 1.03726e-09, No Iterations 6
ExecutionTime = 0.78 s


Courant Number mean: 0.0620574 max: 0.191855
Interface Courant Number mean: 0.00201379 max: 0.0790611
deltaT = 0.0166667
Time = 0.366667

PIMPLE: iteration 1
Execution time for mesh.update() = 0 s
MULES: Solving for alpha.water
Phase-1 volume fraction = 0.339195  Min(alpha.water) = -4.28853e-19  Max(alpha.water) = 1
MULES: Solving for alpha.water
Phase-1 volume fraction = 0.339194  Min(alpha.water) = -2.25732e-19  Max(alpha.water) = 1
MULES: Solving for alpha.water
Phase-1 volume fraction = 0.339194  Min(alpha.water) = -5.80079e-19  Max(alpha.water) = 1
smoothSolver:  Solving for T, Initial residual = 0.00641268, Final residual = 3.86612e-11, No Iterations 3
GAMG:  Solving for p_rgh, Initial residual = 0.0963146, Final residual = 0.000228261, No Iterations 3
GAMGPCG:  Solving for p_rgh, Initial residual = 0.0129103, Final residual = 2.41013e-10, No Iterations 7
ExecutionTime = 0.8 s


Courant Number mean: 0.0566076 max: 0.18339
Interface Courant Number mean: 0.00182771 max: 0.0712844
deltaT = 0.0166667
Time = 0.383333

PIMPLE: iteration 1
Execution time for mesh.update() = 0 s
MULES: Solving for alpha.water
Phase-1 volume fraction = 0.339194  Min(alpha.water) = -1.64517e-19  Max(alpha.water) = 1
MULES: Solving for alpha.water
Phase-1 volume fraction = 0.339193  Min(alpha.water) = -1.63416e-19  Max(alpha.water) = 1
MULES: Solving for alpha.water
Phase-1 volume fraction = 0.339193  Min(alpha.water) = -1.62322e-19  Max(alpha.water) = 1
smoothSolver:  Solving for T, Initial residual = 0.004362, Final residual = 5.28921e-09, No Iterations 2
GAMG:  Solving for p_rgh, Initial residual = 0.0525993, Final residual = 0.000222024, No Iterations 3
GAMGPCG:  Solving for p_rgh, Initial residual = 0.00794882, Final residual = 4.68318e-10, No Iterations 6
ExecutionTime = 0.81 s


Courant Number mean: 0.0513608 max: 0.176991
Interface Courant Number mean: 0.0017123 max: 0.0638251
deltaT = 0.0166667
Time = 0.4

PIMPLE: iteration 1
Execution time for mesh.update() = 0 s
MULES: Solving for alpha.water
Phase-1 volume fraction = 0.339193  Min(alpha.water) = -1.61589e-19  Max(alpha.water) = 1
MULES: Solving for alpha.water
Phase-1 volume fraction = 0.339193  Min(alpha.water) = -1.6086e-19  Max(alpha.water) = 1
MULES: Solving for alpha.water
Phase-1 volume fraction = 0.339192  Min(alpha.water) = -1.60134e-19  Max(alpha.water) = 1
smoothSolver:  Solving for T, Initial residual = 0.00196473, Final residual = 1.628e-09, No Iterations 2
GAMG:  Solving for p_rgh, Initial residual = 0.0247548, Final residual = 0.000133465, No Iterations 3
GAMGPCG:  Solving for p_rgh, Initial residual = 0.00416617, Final residual = 1.14737e-09, No Iterations 6
ExecutionTime = 0.85 s


Courant Number mean: 0.046315 max: 0.169891
Interface Courant Number mean: 0.00164819 max: 0.059242
deltaT = 0.0166667
Time = 0.416667

PIMPLE: iteration 1
Execution time for mesh.update() = 0 s
MULES: Solving for alpha.water
Phase-1 volume fraction = 0.339192  Min(alpha.water) = -1.59258e-19  Max(alpha.water) = 1
MULES: Solving for alpha.water
Phase-1 volume fraction = 0.339192  Min(alpha.water) = -1.58388e-19  Max(alpha.water) = 1
MULES: Solving for alpha.water
Phase-1 volume fraction = 0.339192  Min(alpha.water) = -1.57522e-19  Max(alpha.water) = 1
smoothSolver:  Solving for T, Initial residual = 0.00124576, Final residual = 9.31815e-10, No Iterations 2
GAMG:  Solving for p_rgh, Initial residual = 0.046225, Final residual = 0.000424183, No Iterations 2
GAMGPCG:  Solving for p_rgh, Initial residual = 0.00626522, Final residual = 7.17693e-10, No Iterations 6
ExecutionTime = 0.87 s


Courant Number mean: 0.0412808 max: 0.159191
Interface Courant Number mean: 0.00149688 max: 0.0519907
deltaT = 0.0166667
Time = 0.433333

PIMPLE: iteration 1
Execution time for mesh.update() = 0 s
MULES: Solving for alpha.water
Phase-1 volume fraction = 0.339192  Min(alpha.water) = -1.56224e-19  Max(alpha.water) = 1
MULES: Solving for alpha.water
Phase-1 volume fraction = 0.339191  Min(alpha.water) = -1.54937e-19  Max(alpha.water) = 1
MULES: Solving for alpha.water
Phase-1 volume fraction = 0.339191  Min(alpha.water) = -2.42683e-19  Max(alpha.water) = 1
smoothSolver:  Solving for T, Initial residual = 0.00293607, Final residual = 1.51582e-09, No Iterations 2
GAMG:  Solving for p_rgh, Initial residual = 0.0626992, Final residual = 0.000526345, No Iterations 2
GAMGPCG:  Solving for p_rgh, Initial residual = 0.00841658, Final residual = 1.0681e-09, No Iterations 6
ExecutionTime = 0.88 s


Courant Number mean: 0.0358417 max: 0.143901
Interface Courant Number mean: 0.00130742 max: 0.0442161
deltaT = 0.0166667
Time = 0.45

PIMPLE: iteration 1
Execution time for mesh.update() = 0.01 s
MULES: Solving for alpha.water
Phase-1 volume fraction = 0.339191  Min(alpha.water) = -1.52064e-19  Max(alpha.water) = 1
MULES: Solving for alpha.water
Phase-1 volume fraction = 0.339191  Min(alpha.water) = -1.50485e-19  Max(alpha.water) = 1
MULES: Solving for alpha.water
Phase-1 volume fraction = 0.339191  Min(alpha.water) = -1.67506e-19  Max(alpha.water) = 1
smoothSolver:  Solving for T, Initial residual = 0.00385626, Final residual = 1.17274e-09, No Iterations 2
GAMG:  Solving for p_rgh, Initial residual = 0.0693049, Final residual = 0.000600641, No Iterations 2
GAMGPCG:  Solving for p_rgh, Initial residual = 0.00909951, Final residual = 1.25398e-09, No Iterations 6
ExecutionTime = 0.93 s


Courant Number mean: 0.0295184 max: 0.123347
Interface Courant Number mean: 0.00114243 max: 0.0385502
deltaT = 0.0166667
Time = 0.466667

PIMPLE: iteration 1
Execution time for mesh.update() = 0 s
MULES: Solving for alpha.water
Phase-1 volume fraction = 0.339191  Min(alpha.water) = -1.75231e-19  Max(alpha.water) = 1
MULES: Solving for alpha.water
Phase-1 volume fraction = 0.339191  Min(alpha.water) = -2.32453e-19  Max(alpha.water) = 1
MULES: Solving for alpha.water
Phase-1 volume fraction = 0.339191  Min(alpha.water) = -1.43689e-19  Max(alpha.water) = 1
smoothSolver:  Solving for T, Initial residual = 0.00389454, Final residual = 5.50083e-10, No Iterations 2
GAMG:  Solving for p_rgh, Initial residual = 0.0640358, Final residual = 0.000345047, No Iterations 3
GAMGPCG:  Solving for p_rgh, Initial residual = 0.00792197, Final residual = 8.84328e-10, No Iterations 6
ExecutionTime = 0.94 s


Courant Number mean: 0.022221 max: 0.0989068
Interface Courant Number mean: 0.00097066 max: 0.0372281
deltaT = 0.0166667
Time = 0.483333

PIMPLE: iteration 1
Execution time for mesh.update() = 0 s
MULES: Solving for alpha.water
Phase-1 volume fraction = 0.339191  Min(alpha.water) = -1.41866e-19  Max(alpha.water) = 1
MULES: Solving for alpha.water
Phase-1 volume fraction = 0.33919  Min(alpha.water) = -1.40065e-19  Max(alpha.water) = 1
MULES: Solving for alpha.water
Phase-1 volume fraction = 0.33919  Min(alpha.water) = -1.38286e-19  Max(alpha.water) = 1
smoothSolver:  Solving for T, Initial residual = 0.00315459, Final residual = 1.491e-10, No Iterations 2
GAMG:  Solving for p_rgh, Initial residual = 0.0545906, Final residual = 0.000278763, No Iterations 3
GAMGPCG:  Solving for p_rgh, Initial residual = 0.00604574, Final residual = 5.91287e-10, No Iterations 6
ExecutionTime = 0.96 s


Courant Number mean: 0.0144607 max: 0.0719572
Interface Courant Number mean: 0.000761761 max: 0.0346939
deltaT = 0.0166667
Time = 0.5

PIMPLE: iteration 1
Execution time for mesh.update() = 0 s
MULES: Solving for alpha.water
Phase-1 volume fraction = 0.33919  Min(alpha.water) = -1.36471e-19  Max(alpha.water) = 1
MULES: Solving for alpha.water
Phase-1 volume fraction = 0.33919  Min(alpha.water) = -1.34678e-19  Max(alpha.water) = 1
MULES: Solving for alpha.water
Phase-1 volume fraction = 0.33919  Min(alpha.water) = -1.32908e-19  Max(alpha.water) = 1
smoothSolver:  Solving for T, Initial residual = 0.001894, Final residual = 2.1212e-11, No Iterations 2
GAMG:  Solving for p_rgh, Initial residual = 0.0388731, Final residual = 0.000187215, No Iterations 3
GAMGPCG:  Solving for p_rgh, Initial residual = 0.0039654, Final residual = 9.41193e-10, No Iterations 6
ExecutionTime = 1 s


Courant Number mean: 0.0076568 max: 0.0504984
Interface Courant Number mean: 0.000609819 max: 0.0322381
deltaT = 0.0166667
Time = 0.516667

PIMPLE: iteration 1
Execution time for mesh.update() = 0 s
MULES: Solving for alpha.water
Phase-1 volume fraction = 0.33919  Min(alpha.water) = -1.31128e-19  Max(alpha.water) = 1
MULES: Solving for alpha.water
Phase-1 volume fraction = 0.339189  Min(alpha.water) = -1.2937e-19  Max(alpha.water) = 1
MULES: Solving for alpha.water
Phase-1 volume fraction = 0.339189  Min(alpha.water) = -2.20982e-19  Max(alpha.water) = 1
smoothSolver:  Solving for T, Initial residual = 0.000430955, Final residual = 1.64569e-12, No Iterations 2
GAMG:  Solving for p_rgh, Initial residual = 0.0385823, Final residual = 0.000259471, No Iterations 2
GAMGPCG:  Solving for p_rgh, Initial residual = 0.00314453, Final residual = 3.79933e-10, No Iterations 6
ExecutionTime = 1 s


Courant Number mean: 0.00919878 max: 0.0521415
Interface Courant Number mean: 0.000590337 max: 0.0312937
deltaT = 0.0166667
Time = 0.533333

PIMPLE: iteration 1
Execution time for mesh.update() = 0 s
MULES: Solving for alpha.water
Phase-1 volume fraction = 0.339189  Min(alpha.water) = -1.25876e-19  Max(alpha.water) = 1
MULES: Solving for alpha.water
Phase-1 volume fraction = 0.339189  Min(alpha.water) = -1.24141e-19  Max(alpha.water) = 1
MULES: Solving for alpha.water
Phase-1 volume fraction = 0.339189  Min(alpha.water) = -1.22428e-19  Max(alpha.water) = 1
smoothSolver:  Solving for T, Initial residual = 0.000969265, Final residual = 3.16543e-12, No Iterations 2
GAMG:  Solving for p_rgh, Initial residual = 0.0469811, Final residual = 0.00035277, No Iterations 2
GAMGPCG:  Solving for p_rgh, Initial residual = 0.00470242, Final residual = 3.76218e-10, No Iterations 6
ExecutionTime = 1.02 s


Courant Number mean: 0.0154023 max: 0.0549998
Interface Courant Number mean: 0.000671068 max: 0.0332171
deltaT = 0.0166667
Time = 0.55

PIMPLE: iteration 1
Execution time for mesh.update() = 0 s
MULES: Solving for alpha.water
Phase-1 volume fraction = 0.339189  Min(alpha.water) = -1.20653e-19  Max(alpha.water) = 1
MULES: Solving for alpha.water
Phase-1 volume fraction = 0.339189  Min(alpha.water) = -1.18903e-19  Max(alpha.water) = 1
MULES: Solving for alpha.water
Phase-1 volume fraction = 0.339189  Min(alpha.water) = -1.17176e-19  Max(alpha.water) = 1
smoothSolver:  Solving for T, Initial residual = 0.00185431, Final residual = 2.51284e-11, No Iterations 2
GAMG:  Solving for p_rgh, Initial residual = 0.0463676, Final residual = 0.00039231, No Iterations 2
GAMGPCG:  Solving for p_rgh, Initial residual = 0.005173, Final residual = 4.17601e-10, No Iterations 6
ExecutionTime = 1.06 s


Courant Number mean: 0.0220861 max: 0.0765993
Interface Courant Number mean: 0.000809412 max: 0.036477
deltaT = 0.0166667
Time = 0.566667

PIMPLE: iteration 1
Execution time for mesh.update() = 0 s
MULES: Solving for alpha.water
Phase-1 volume fraction = 0.33919  Min(alpha.water) = -1.95007e-19  Max(alpha.water) = 1
MULES: Solving for alpha.water
Phase-1 volume fraction = 0.33919  Min(alpha.water) = -1.13544e-19  Max(alpha.water) = 1
MULES: Solving for alpha.water
Phase-1 volume fraction = 0.33919  Min(alpha.water) = -1.89844e-19  Max(alpha.water) = 1
smoothSolver:  Solving for T, Initial residual = 0.00225537, Final residual = 1.08016e-10, No Iterations 2
GAMG:  Solving for p_rgh, Initial residual = 0.0437669, Final residual = 0.000325046, No Iterations 2
GAMGPCG:  Solving for p_rgh, Initial residual = 0.00523949, Final residual = 6.43083e-10, No Iterations 6
ExecutionTime = 1.08 s


Courant Number mean: 0.0285714 max: 0.098301
Interface Courant Number mean: 0.000959156 max: 0.0447094
deltaT = 0.0166667
Time = 0.583333

PIMPLE: iteration 1
Execution time for mesh.update() = 0 s
MULES: Solving for alpha.water
Phase-1 volume fraction = 0.33919  Min(alpha.water) = -1.09852e-19  Max(alpha.water) = 1
MULES: Solving for alpha.water
Phase-1 volume fraction = 0.33919  Min(alpha.water) = -1.07966e-19  Max(alpha.water) = 1
MULES: Solving for alpha.water
Phase-1 volume fraction = 0.33919  Min(alpha.water) = -1.99149e-19  Max(alpha.water) = 1
smoothSolver:  Solving for T, Initial residual = 0.00215125, Final residual = 2.57565e-10, No Iterations 2
GAMG:  Solving for p_rgh, Initial residual = 0.0360606, Final residual = 0.000273474, No Iterations 2
GAMGPCG:  Solving for p_rgh, Initial residual = 0.00477042, Final residual = 3.28803e-10, No Iterations 6
ExecutionTime = 1.09 s


Courant Number mean: 0.0348535 max: 0.117983
Interface Courant Number mean: 0.00112595 max: 0.0529516
deltaT = 0.0166667
Time = 0.6

PIMPLE: iteration 1
Execution time for mesh.update() = 0 s
MULES: Solving for alpha.water
Phase-1 volume fraction = 0.33919  Min(alpha.water) = -2.87301e-19  Max(alpha.water) = 1
MULES: Solving for alpha.water
Phase-1 volume fraction = 0.33919  Min(alpha.water) = -4.05566e-19  Max(alpha.water) = 1
MULES: Solving for alpha.water
Phase-1 volume fraction = 0.33919  Min(alpha.water) = -1.00165e-19  Max(alpha.water) = 1
smoothSolver:  Solving for T, Initial residual = 0.00166515, Final residual = 4.12043e-10, No Iterations 2
GAMG:  Solving for p_rgh, Initial residual = 0.027443, Final residual = 0.000191598, No Iterations 2
GAMGPCG:  Solving for p_rgh, Initial residual = 0.00387111, Final residual = 3.49949e-10, No Iterations 6
ExecutionTime = 1.14 s


Courant Number mean: 0.0410061 max: 0.136287
Interface Courant Number mean: 0.00133544 max: 0.0612408
deltaT = 0.0166667
Time = 0.616667

PIMPLE: iteration 1
Execution time for mesh.update() = 0 s
MULES: Solving for alpha.water
Phase-1 volume fraction = 0.33919  Min(alpha.water) = -9.80549e-20  Max(alpha.water) = 1
MULES: Solving for alpha.water
Phase-1 volume fraction = 0.33919  Min(alpha.water) = -5.48344e-19  Max(alpha.water) = 1
MULES: Solving for alpha.water
Phase-1 volume fraction = 0.33919  Min(alpha.water) = -2.13623e-19  Max(alpha.water) = 1
smoothSolver:  Solving for T, Initial residual = 0.000977185, Final residual = 4.89205e-10, No Iterations 2
GAMG:  Solving for p_rgh, Initial residual = 0.0187644, Final residual = 0.000124798, No Iterations 2
GAMGPCG:  Solving for p_rgh, Initial residual = 0.00316078, Final residual = 5.78267e-10, No Iterations 6
ExecutionTime = 1.15 s


Courant Number mean: 0.047119 max: 0.154287
Interface Courant Number mean: 0.00152163 max: 0.0694707
deltaT = 0.0166667
Time = 0.633333

PIMPLE: iteration 1
Execution time for mesh.update() = 0 s
MULES: Solving for alpha.water
Phase-1 volume fraction = 0.33919  Min(alpha.water) = -9.17844e-20  Max(alpha.water) = 1
MULES: Solving for alpha.water
Phase-1 volume fraction = 0.33919  Min(alpha.water) = -4.17634e-19  Max(alpha.water) = 1
MULES: Solving for alpha.water
Phase-1 volume fraction = 0.33919  Min(alpha.water) = -1.6636e-19  Max(alpha.water) = 1
smoothSolver:  Solving for T, Initial residual = 0.000573774, Final residual = 7.89204e-10, No Iterations 2
GAMG:  Solving for p_rgh, Initial residual = 0.0253176, Final residual = 0.000198115, No Iterations 2
GAMGPCG:  Solving for p_rgh, Initial residual = 0.00406144, Final residual = 4.6071e-10, No Iterations 6
ExecutionTime = 1.16 s


Courant Number mean: 0.0532425 max: 0.172545
Interface Courant Number mean: 0.00168781 max: 0.0775828
deltaT = 0.0166667
Time = 0.65

PIMPLE: iteration 1
Execution time for mesh.update() = 0 s
MULES: Solving for alpha.water
Phase-1 volume fraction = 0.33919  Min(alpha.water) = -4.11247e-19  Max(alpha.water) = 1
MULES: Solving for alpha.water
Phase-1 volume fraction = 0.33919  Min(alpha.water) = -9.52155e-20  Max(alpha.water) = 1
MULES: Solving for alpha.water
Phase-1 volume fraction = 0.33919  Min(alpha.water) = -8.12464e-20  Max(alpha.water) = 1
smoothSolver:  Solving for T, Initial residual = 0.00119663, Final residual = 1.69637e-09, No Iterations 2
GAMG:  Solving for p_rgh, Initial residual = 0.0347443, Final residual = 0.000275846, No Iterations 2
GAMGPCG:  Solving for p_rgh, Initial residual = 0.00546759, Final residual = 4.16128e-10, No Iterations 6
ExecutionTime = 1.2 s


Courant Number mean: 0.0593904 max: 0.191621
Interface Courant Number mean: 0.00185079 max: 0.0855221
deltaT = 0.025
Time = 0.675

PIMPLE: iteration 1
Execution time for mesh.update() = 0 s
MULES: Solving for alpha.water
Phase-1 volume fraction = 0.339191  Min(alpha.water) = -2.34565e-19  Max(alpha.water) = 1
MULES: Solving for alpha.water
Phase-1 volume fraction = 0.339191  Min(alpha.water) = -8.42319e-20  Max(alpha.water) = 1
MULES: Solving for alpha.water
Phase-1 volume fraction = 0.339191  Min(alpha.water) = -1.17722e-19  Max(alpha.water) = 1
smoothSolver:  Solving for T, Initial residual = 0.00246835, Final residual = 2.29816e-10, No Iterations 3
GAMG:  Solving for p_rgh, Initial residual = 0.0745205, Final residual = 0.000353945, No Iterations 4
GAMGPCG:  Solving for p_rgh, Initial residual = 0.0159532, Final residual = 9.81654e-10, No Iterations 7
ExecutionTime = 1.22 s


Courant Number mean: 0.100403 max: 0.324713
Interface Courant Number mean: 0.00284964 max: 0.13632
deltaT = 0.025
Time = 0.7

PIMPLE: iteration 1
Execution time for mesh.update() = 0.01 s
MULES: Solving for alpha.water
Phase-1 volume fraction = 0.339191  Min(alpha.water) = -1.13647e-19  Max(alpha.water) = 1
MULES: Solving for alpha.water
Phase-1 volume fraction = 0.339191  Min(alpha.water) = -1.09727e-19  Max(alpha.water) = 1
MULES: Solving for alpha.water
Phase-1 volume fraction = 0.339192  Min(alpha.water) = -1.05957e-19  Max(alpha.water) = 1
smoothSolver:  Solving for T, Initial residual = 0.00286673, Final residual = 3.52091e-10, No Iterations 3
GAMG:  Solving for p_rgh, Initial residual = 0.0760243, Final residual = 0.000467044, No Iterations 4
GAMGPCG:  Solving for p_rgh, Initial residual = 0.0153322, Final residual = 3.35503e-10, No Iterations 7
ExecutionTime = 1.27 s


Courant Number mean: 0.114329 max: 0.373105
Interface Courant Number mean: 0.00327735 max: 0.15342
deltaT = 0.025
Time = 0.725

PIMPLE: iteration 1
Execution time for mesh.update() = 0 s
MULES: Solving for alpha.water
Phase-1 volume fraction = 0.339191  Min(alpha.water) = -5.82674e-19  Max(alpha.water) = 1
MULES: Solving for alpha.water
Phase-1 volume fraction = 0.339191  Min(alpha.water) = -1.12488e-19  Max(alpha.water) = 1
MULES: Solving for alpha.water
Phase-1 volume fraction = 0.339191  Min(alpha.water) = -4.62506e-19  Max(alpha.water) = 1
smoothSolver:  Solving for T, Initial residual = 0.00225341, Final residual = 8.93076e-10, No Iterations 3
GAMG:  Solving for p_rgh, Initial residual = 0.0706876, Final residual = 0.000301708, No Iterations 3
GAMGPCG:  Solving for p_rgh, Initial residual = 0.0125385, Final residual = 5.34135e-10, No Iterations 7
ExecutionTime = 1.28 s


Courant Number mean: 0.127468 max: 0.421146
Interface Courant Number mean: 0.00365631 max: 0.16914
deltaT = 0.025
Time = 0.75

PIMPLE: iteration 1
Execution time for mesh.update() = 0 s
MULES: Solving for alpha.water
Phase-1 volume fraction = 0.339191  Min(alpha.water) = -5.75818e-19  Max(alpha.water) = 1
MULES: Solving for alpha.water
Phase-1 volume fraction = 0.339191  Min(alpha.water) = -4.87341e-19  Max(alpha.water) = 1
MULES: Solving for alpha.water
Phase-1 volume fraction = 0.339192  Min(alpha.water) = -1.58824e-18  Max(alpha.water) = 1
smoothSolver:  Solving for T, Initial residual = 0.00137689, Final residual = 1.22383e-09, No Iterations 3
GAMG:  Solving for p_rgh, Initial residual = 0.0755442, Final residual = 0.000700017, No Iterations 2
GAMGPCG:  Solving for p_rgh, Initial residual = 0.0128535, Final residual = 3.96405e-10, No Iterations 7
ExecutionTime = 1.32 s


Courant Number mean: 0.139531 max: 0.464952
Interface Courant Number mean: 0.00405803 max: 0.183696
deltaT = 0.025
Time = 0.775

PIMPLE: iteration 1
Execution time for mesh.update() = 0 s
MULES: Solving for alpha.water
Phase-1 volume fraction = 0.339192  Min(alpha.water) = -1.00786e-19  Max(alpha.water) = 1
MULES: Solving for alpha.water
Phase-1 volume fraction = 0.339192  Min(alpha.water) = -2.36705e-19  Max(alpha.water) = 1
MULES: Solving for alpha.water
Phase-1 volume fraction = 0.339192  Min(alpha.water) = -2.2748e-19  Max(alpha.water) = 1
smoothSolver:  Solving for T, Initial residual = 0.00149744, Final residual = 2.17449e-09, No Iterations 3
GAMG:  Solving for p_rgh, Initial residual = 0.0877738, Final residual = 0.000406172, No Iterations 3
GAMGPCG:  Solving for p_rgh, Initial residual = 0.0139552, Final residual = 5.82873e-10, No Iterations 7
ExecutionTime = 1.34 s


Courant Number mean: 0.150328 max: 0.502971
Interface Courant Number mean: 0.00430101 max: 0.199149
deltaT = 0.025
Time = 0.8

PIMPLE: iteration 1
Execution time for mesh.update() = 0 s
MULES: Solving for alpha.water
Phase-1 volume fraction = 0.339193  Min(alpha.water) = -6.99073e-19  Max(alpha.water) = 1
MULES: Solving for alpha.water
Phase-1 volume fraction = 0.339193  Min(alpha.water) = -7.46059e-19  Max(alpha.water) = 1
MULES: Solving for alpha.water
Phase-1 volume fraction = 0.339193  Min(alpha.water) = -2.39335e-18  Max(alpha.water) = 1
smoothSolver:  Solving for T, Initial residual = 0.00175949, Final residual = 4.0695e-09, No Iterations 3
GAMG:  Solving for p_rgh, Initial residual = 0.0918714, Final residual = 0.000442961, No Iterations 3
GAMGPCG:  Solving for p_rgh, Initial residual = 0.0144647, Final residual = 6.81985e-10, No Iterations 7
ExecutionTime = 1.38 s


Courant Number mean: 0.159837 max: 0.535322
Interface Courant Number mean: 0.00434803 max: 0.21146
deltaT = 0.025
Time = 0.825

PIMPLE: iteration 1
Execution time for mesh.update() = 0 s
MULES: Solving for alpha.water
Phase-1 volume fraction = 0.339193  Min(alpha.water) = -1.66578e-18  Max(alpha.water) = 1
MULES: Solving for alpha.water
Phase-1 volume fraction = 0.339194  Min(alpha.water) = -3.14355e-19  Max(alpha.water) = 1
MULES: Solving for alpha.water
Phase-1 volume fraction = 0.339194  Min(alpha.water) = -1.59883e-18  Max(alpha.water) = 1
smoothSolver:  Solving for T, Initial residual = 0.00158454, Final residual = 7.9773e-09, No Iterations 3
GAMG:  Solving for p_rgh, Initial residual = 0.0944925, Final residual = 0.000414327, No Iterations 3
GAMGPCG:  Solving for p_rgh, Initial residual = 0.0149983, Final residual = 5.07744e-10, No Iterations 7
ExecutionTime = 1.4 s


Courant Number mean: 0.168157 max: 0.563168
Interface Courant Number mean: 0.00423827 max: 0.222021
deltaT = 0.025
Time = 0.85

PIMPLE: iteration 1
Execution time for mesh.update() = 0 s
MULES: Solving for alpha.water
Phase-1 volume fraction = 0.339194  Min(alpha.water) = -3.0874e-19  Max(alpha.water) = 1
MULES: Solving for alpha.water
Phase-1 volume fraction = 0.339194  Min(alpha.water) = -3.10092e-19  Max(alpha.water) = 1
MULES: Solving for alpha.water
Phase-1 volume fraction = 0.339194  Min(alpha.water) = -8.52477e-19  Max(alpha.water) = 1
smoothSolver:  Solving for T, Initial residual = 0.00151134, Final residual = 4.81504e-10, No Iterations 4
GAMG:  Solving for p_rgh, Initial residual = 0.113581, Final residual = 0.000599206, No Iterations 3
GAMGPCG:  Solving for p_rgh, Initial residual = 0.0168778, Final residual = 8.43364e-10, No Iterations 7
ExecutionTime = 1.44 s


Courant Number mean: 0.1754 max: 0.587709
Interface Courant Number mean: 0.00414376 max: 0.230621
deltaT = 0.025
Time = 0.875

PIMPLE: iteration 1
Execution time for mesh.update() = 0.01 s
MULES: Solving for alpha.water
Phase-1 volume fraction = 0.339195  Min(alpha.water) = -1.28888e-18  Max(alpha.water) = 1
MULES: Solving for alpha.water
Phase-1 volume fraction = 0.339195  Min(alpha.water) = -1.62138e-19  Max(alpha.water) = 1
MULES: Solving for alpha.water
Phase-1 volume fraction = 0.339195  Min(alpha.water) = -4.67626e-19  Max(alpha.water) = 1
smoothSolver:  Solving for T, Initial residual = 0.00196071, Final residual = 7.7803e-09, No Iterations 3
GAMG:  Solving for p_rgh, Initial residual = 0.136671, Final residual = 0.00063601, No Iterations 3
GAMGPCG:  Solving for p_rgh, Initial residual = 0.0190063, Final residual = 6.35918e-10, No Iterations 7
ExecutionTime = 1.45 s


Courant Number mean: 0.181677 max: 0.609629
Interface Courant Number mean: 0.00491095 max: 0.236872
deltaT = 0.025
Time = 0.9

PIMPLE: iteration 1
Execution time for mesh.update() = 0 s
MULES: Solving for alpha.water
Phase-1 volume fraction = 0.339195  Min(alpha.water) = -9.09353e-19  Max(alpha.water) = 1
MULES: Solving for alpha.water
Phase-1 volume fraction = 0.339195  Min(alpha.water) = -2.20142e-18  Max(alpha.water) = 1
MULES: Solving for alpha.water
Phase-1 volume fraction = 0.339195  Min(alpha.water) = -8.58357e-19  Max(alpha.water) = 1
smoothSolver:  Solving for T, Initial residual = 0.00235385, Final residual = 5.24021e-10, No Iterations 4
GAMG:  Solving for p_rgh, Initial residual = 0.131139, Final residual = 0.000861156, No Iterations 3
GAMGPCG:  Solving for p_rgh, Initial residual = 0.0186324, Final residual = 9.04537e-10, No Iterations 7
ExecutionTime = 1.5 s


Courant Number mean: 0.186963 max: 0.628982
Interface Courant Number mean: 0.00586813 max: 0.241936
deltaT = 0.0166667
Time = 0.916667

PIMPLE: iteration 1
Execution time for mesh.update() = 0 s
MULES: Solving for alpha.water
Phase-1 volume fraction = 0.339196  Min(alpha.water) = -5.79769e-20  Max(alpha.water) = 1
MULES: Solving for alpha.water
Phase-1 volume fraction = 0.339196  Min(alpha.water) = -4.0048e-20  Max(alpha.water) = 1
MULES: Solving for alpha.water
Phase-1 volume fraction = 0.339196  Min(alpha.water) = -2.95049e-20  Max(alpha.water) = 1
smoothSolver:  Solving for T, Initial residual = 0.00163161, Final residual = 7.764e-10, No Iterations 3
GAMG:  Solving for p_rgh, Initial residual = 0.087961, Final residual = 0.000702196, No Iterations 2
GAMGPCG:  Solving for p_rgh, Initial residual = 0.00949469, Final residual = 1.15917e-09, No Iterations 6
ExecutionTime = 1.52 s


Courant Number mean: 0.127086 max: 0.428668
Interface Courant Number mean: 0.00395026 max: 0.163128
deltaT = 0.0166667
Time = 0.933333

PIMPLE: iteration 1
Execution time for mesh.update() = 0 s
MULES: Solving for alpha.water
Phase-1 volume fraction = 0.339196  Min(alpha.water) = -2.68909e-20  Max(alpha.water) = 1
MULES: Solving for alpha.water
Phase-1 volume fraction = 0.339196  Min(alpha.water) = -2.56062e-20  Max(alpha.water) = 1
MULES: Solving for alpha.water
Phase-1 volume fraction = 0.339196  Min(alpha.water) = -2.43855e-20  Max(alpha.water) = 1
smoothSolver:  Solving for T, Initial residual = 0.00155687, Final residual = 1.06037e-09, No Iterations 3
GAMG:  Solving for p_rgh, Initial residual = 0.079957, Final residual = 0.000608492, No Iterations 4
GAMGPCG:  Solving for p_rgh, Initial residual = 0.0104763, Final residual = 1.59019e-09, No Iterations 6
ExecutionTime = 1.53 s


Courant Number mean: 0.128531 max: 0.434816
Interface Courant Number mean: 0.00398986 max: 0.16359
deltaT = 0.0166667
Time = 0.95

PIMPLE: iteration 1
Execution time for mesh.update() = 0.01 s
MULES: Solving for alpha.water
Phase-1 volume fraction = 0.339196  Min(alpha.water) = -2.32116e-20  Max(alpha.water) = 1
MULES: Solving for alpha.water
Phase-1 volume fraction = 0.339196  Min(alpha.water) = -2.20969e-20  Max(alpha.water) = 1
MULES: Solving for alpha.water
Phase-1 volume fraction = 0.339196  Min(alpha.water) = -2.10384e-20  Max(alpha.water) = 1
smoothSolver:  Solving for T, Initial residual = 0.00155937, Final residual = 1.21415e-09, No Iterations 3
GAMG:  Solving for p_rgh, Initial residual = 0.0758918, Final residual = 0.000365305, No Iterations 4
GAMGPCG:  Solving for p_rgh, Initial residual = 0.00896878, Final residual = 9.48188e-10, No Iterations 6
ExecutionTime = 1.57 s


Courant Number mean: 0.129664 max: 0.439554
Interface Courant Number mean: 0.0039574 max: 0.164846
deltaT = 0.0166667
Time = 0.966667

PIMPLE: iteration 1
Execution time for mesh.update() = 0 s
MULES: Solving for alpha.water
Phase-1 volume fraction = 0.339196  Min(alpha.water) = -8.25744e-20  Max(alpha.water) = 1
MULES: Solving for alpha.water
Phase-1 volume fraction = 0.339196  Min(alpha.water) = -1.23357e-18  Max(alpha.water) = 1
MULES: Solving for alpha.water
Phase-1 volume fraction = 0.339196  Min(alpha.water) = -1.54179e-19  Max(alpha.water) = 1
smoothSolver:  Solving for T, Initial residual = 0.00153334, Final residual = 5.8725e-10, No Iterations 3
GAMG:  Solving for p_rgh, Initial residual = 0.0698604, Final residual = 0.000500944, No Iterations 3
GAMGPCG:  Solving for p_rgh, Initial residual = 0.00744888, Final residual = 8.99846e-10, No Iterations 6
ExecutionTime = 1.58 s


Courant Number mean: 0.130458 max: 0.442957
Interface Courant Number mean: 0.00359095 max: 0.167598
deltaT = 0.0166667
Time = 0.983333

PIMPLE: iteration 1
Execution time for mesh.update() = 0 s
MULES: Solving for alpha.water
Phase-1 volume fraction = 0.339196  Min(alpha.water) = -6.22656e-19  Max(alpha.water) = 1
MULES: Solving for alpha.water
Phase-1 volume fraction = 0.339197  Min(alpha.water) = -4.01052e-19  Max(alpha.water) = 1
MULES: Solving for alpha.water
Phase-1 volume fraction = 0.339197  Min(alpha.water) = -1.73345e-19  Max(alpha.water) = 1
smoothSolver:  Solving for T, Initial residual = 0.00157185, Final residual = 6.2917e-10, No Iterations 3
GAMG:  Solving for p_rgh, Initial residual = 0.0643017, Final residual = 0.000374213, No Iterations 3
GAMGPCG:  Solving for p_rgh, Initial residual = 0.0060097, Final residual = 1.33675e-09, No Iterations 6
ExecutionTime = 1.6 s


Courant Number mean: 0.130896 max: 0.445118
Interface Courant Number mean: 0.00368211 max: 0.169374
deltaT = 0.0166667
Time = 1

PIMPLE: iteration 1
Execution time for mesh.update() = 0 s
MULES: Solving for alpha.water
Phase-1 volume fraction = 0.339197  Min(alpha.water) = -2.40972e-19  Max(alpha.water) = 1
MULES: Solving for alpha.water
Phase-1 volume fraction = 0.339197  Min(alpha.water) = -7.62343e-20  Max(alpha.water) = 1
MULES: Solving for alpha.water
Phase-1 volume fraction = 0.339197  Min(alpha.water) = -6.16703e-19  Max(alpha.water) = 1
smoothSolver:  Solving for T, Initial residual = 0.00160662, Final residual = 6.75146e-10, No Iterations 3
GAMG:  Solving for p_rgh, Initial residual = 0.0483731, Final residual = 0.000373733, No Iterations 3
GAMGPCG:  Solving for p_rgh, Initial residual = 0.00517397, Final residual = 8.5603e-10, No Iterations 6
ExecutionTime = 1.64 s


Courant Number mean: 0.130984 max: 0.446081
Interface Courant Number mean: 0.00377583 max: 0.173939
deltaT = 0.0166667
Time = 1.01667

PIMPLE: iteration 1
Execution time for mesh.update() = 0 s
MULES: Solving for alpha.water
Phase-1 volume fraction = 0.339197  Min(alpha.water) = -6.67711e-20  Max(alpha.water) = 1
MULES: Solving for alpha.water
Phase-1 volume fraction = 0.339197  Min(alpha.water) = -2.4599e-19  Max(alpha.water) = 1
MULES: Solving for alpha.water
Phase-1 volume fraction = 0.339197  Min(alpha.water) = -6.93866e-20  Max(alpha.water) = 1
smoothSolver:  Solving for T, Initial residual = 0.00156134, Final residual = 8.18516e-10, No Iterations 3
GAMG:  Solving for p_rgh, Initial residual = 0.0370339, Final residual = 0.000337142, No Iterations 3
GAMGPCG:  Solving for p_rgh, Initial residual = 0.0048335, Final residual = 6.86426e-10, No Iterations 6
ExecutionTime = 1.65 s


Courant Number mean: 0.130714 max: 0.445835
Interface Courant Number mean: 0.00399465 max: 0.17162
deltaT = 0.0166667
Time = 1.03333

PIMPLE: iteration 1
Execution time for mesh.update() = 0.01 s
MULES: Solving for alpha.water
Phase-1 volume fraction = 0.339197  Min(alpha.water) = -3.99345e-19  Max(alpha.water) = 1
MULES: Solving for alpha.water
Phase-1 volume fraction = 0.339197  Min(alpha.water) = -7.70869e-20  Max(alpha.water) = 1
MULES: Solving for alpha.water
Phase-1 volume fraction = 0.339197  Min(alpha.water) = -6.61086e-19  Max(alpha.water) = 1
smoothSolver:  Solving for T, Initial residual = 0.00159728, Final residual = 8.53153e-10, No Iterations 3
GAMG:  Solving for p_rgh, Initial residual = 0.0355366, Final residual = 0.000278379, No Iterations 3
GAMGPCG:  Solving for p_rgh, Initial residual = 0.00474889, Final residual = 5.95036e-10, No Iterations 6
ExecutionTime = 1.67 s


Courant Number mean: 0.130085 max: 0.444496
Interface Courant Number mean: 0.00403125 max: 0.170141
deltaT = 0.0166667
Time = 1.05

PIMPLE: iteration 1
Execution time for mesh.update() = 0 s
MULES: Solving for alpha.water
Phase-1 volume fraction = 0.339197  Min(alpha.water) = -7.23966e-20  Max(alpha.water) = 1
MULES: Solving for alpha.water
Phase-1 volume fraction = 0.339197  Min(alpha.water) = -7.43791e-20  Max(alpha.water) = 1
MULES: Solving for alpha.water
Phase-1 volume fraction = 0.339196  Min(alpha.water) = -3.21247e-19  Max(alpha.water) = 1
smoothSolver:  Solving for T, Initial residual = 0.00159149, Final residual = 7.84461e-10, No Iterations 3
GAMG:  Solving for p_rgh, Initial residual = 0.0386904, Final residual = 0.000270342, No Iterations 3
GAMGPCG:  Solving for p_rgh, Initial residual = 0.0048626, Final residual = 7.29723e-10, No Iterations 6
ExecutionTime = 1.71 s


Courant Number mean: 0.129092 max: 0.441858
Interface Courant Number mean: 0.00409089 max: 0.168896
deltaT = 0.0166667
Time = 1.06667

PIMPLE: iteration 1
Execution time for mesh.update() = 0 s
MULES: Solving for alpha.water
Phase-1 volume fraction = 0.339196  Min(alpha.water) = -3.18885e-19  Max(alpha.water) = 1
MULES: Solving for alpha.water
Phase-1 volume fraction = 0.339196  Min(alpha.water) = -1.23353e-18  Max(alpha.water) = 1
MULES: Solving for alpha.water
Phase-1 volume fraction = 0.339196  Min(alpha.water) = -3.1459e-19  Max(alpha.water) = 1
smoothSolver:  Solving for T, Initial residual = 0.00156456, Final residual = 6.77113e-10, No Iterations 3
GAMG:  Solving for p_rgh, Initial residual = 0.0436593, Final residual = 0.000260394, No Iterations 3
GAMGPCG:  Solving for p_rgh, Initial residual = 0.00483574, Final residual = 7.69736e-10, No Iterations 6
ExecutionTime = 1.73 s


Courant Number mean: 0.127723 max: 0.437922
Interface Courant Number mean: 0.00388224 max: 0.167477
deltaT = 0.0166667
Time = 1.08333

PIMPLE: iteration 1
Execution time for mesh.update() = 0 s
MULES: Solving for alpha.water
Phase-1 volume fraction = 0.339196  Min(alpha.water) = -3.10213e-19  Max(alpha.water) = 1
MULES: Solving for alpha.water
Phase-1 volume fraction = 0.339196  Min(alpha.water) = -1.23355e-18  Max(alpha.water) = 1
MULES: Solving for alpha.water
Phase-1 volume fraction = 0.339196  Min(alpha.water) = -3.01985e-19  Max(alpha.water) = 1
smoothSolver:  Solving for T, Initial residual = 0.00157008, Final residual = 6.98609e-10, No Iterations 3
GAMG:  Solving for p_rgh, Initial residual = 0.0472069, Final residual = 0.000271123, No Iterations 3
GAMGPCG:  Solving for p_rgh, Initial residual = 0.004703, Final residual = 6.03468e-10, No Iterations 6
ExecutionTime = 1.74 s


Courant Number mean: 0.125979 max: 0.432675
Interface Courant Number mean: 0.00354794 max: 0.165031
deltaT = 0.0166667
Time = 1.1

PIMPLE: iteration 1
Execution time for mesh.update() = 0 s
MULES: Solving for alpha.water
Phase-1 volume fraction = 0.339196  Min(alpha.water) = -2.94484e-19  Max(alpha.water) = 1
MULES: Solving for alpha.water
Phase-1 volume fraction = 0.339196  Min(alpha.water) = -2.87213e-19  Max(alpha.water) = 1
MULES: Solving for alpha.water
Phase-1 volume fraction = 0.339196  Min(alpha.water) = -2.80166e-19  Max(alpha.water) = 1
smoothSolver:  Solving for T, Initial residual = 0.00159233, Final residual = 4.64463e-10, No Iterations 3
GAMG:  Solving for p_rgh, Initial residual = 0.0488772, Final residual = 0.00027322, No Iterations 3
GAMGPCG:  Solving for p_rgh, Initial residual = 0.00475604, Final residual = 5.83031e-10, No Iterations 6
ExecutionTime = 1.78 s


Courant Number mean: 0.123854 max: 0.426236
Interface Courant Number mean: 0.00357839 max: 0.167786
deltaT = 0.0166667
Time = 1.11667

PIMPLE: iteration 1
Execution time for mesh.update() = 0 s
MULES: Solving for alpha.water
Phase-1 volume fraction = 0.339196  Min(alpha.water) = -2.73846e-19  Max(alpha.water) = 1
MULES: Solving for alpha.water
Phase-1 volume fraction = 0.339196  Min(alpha.water) = -2.67731e-19  Max(alpha.water) = 1
MULES: Solving for alpha.water
Phase-1 volume fraction = 0.339196  Min(alpha.water) = -2.61815e-19  Max(alpha.water) = 1
smoothSolver:  Solving for T, Initial residual = 0.00158848, Final residual = 4.32706e-10, No Iterations 3
GAMG:  Solving for p_rgh, Initial residual = 0.0469263, Final residual = 0.000269504, No Iterations 3
GAMGPCG:  Solving for p_rgh, Initial residual = 0.00507268, Final residual = 7.94453e-10, No Iterations 6
ExecutionTime = 1.8 s


Courant Number mean: 0.121352 max: 0.418485
Interface Courant Number mean: 0.00361449 max: 0.160817
deltaT = 0.0166667
Time = 1.13333

PIMPLE: iteration 1
Execution time for mesh.update() = 0 s
MULES: Solving for alpha.water
Phase-1 volume fraction = 0.339196  Min(alpha.water) = -2.56569e-19  Max(alpha.water) = 1
MULES: Solving for alpha.water
Phase-1 volume fraction = 0.339196  Min(alpha.water) = -2.54067e-19  Max(alpha.water) = 1
MULES: Solving for alpha.water
Phase-1 volume fraction = 0.339195  Min(alpha.water) = -2.49073e-19  Max(alpha.water) = 1
smoothSolver:  Solving for T, Initial residual = 0.00155332, Final residual = 3.28053e-10, No Iterations 3
GAMG:  Solving for p_rgh, Initial residual = 0.0434352, Final residual = 0.000297589, No Iterations 3
GAMGPCG:  Solving for p_rgh, Initial residual = 0.00543494, Final residual = 5.60488e-10, No Iterations 6
ExecutionTime = 1.81 s


Courant Number mean: 0.118492 max: 0.409608
Interface Courant Number mean: 0.00371101 max: 0.154602
deltaT = 0.0166667
Time = 1.15

PIMPLE: iteration 1
Execution time for mesh.update() = 0.01 s
MULES: Solving for alpha.water
Phase-1 volume fraction = 0.339195  Min(alpha.water) = -3.17284e-19  Max(alpha.water) = 1
MULES: Solving for alpha.water
Phase-1 volume fraction = 0.339195  Min(alpha.water) = -1.34534e-19  Max(alpha.water) = 1
MULES: Solving for alpha.water
Phase-1 volume fraction = 0.339195  Min(alpha.water) = -4.41203e-19  Max(alpha.water) = 1
[...]
smoothSolver:  Solving for T, Initial residual = 0.0132061, Final residual = 8.2872e-10, No Iterations 4
GAMG:  Solving for p_rgh, Initial residual = 0.0808885, Final residual = 0.000127952, No Iterations 2
GAMGPCG:  Solving for p_rgh, Initial residual = 0.0135592, Final residual = 2.90765e-10, No Iterations 5
ExecutionTime = 63.29 s


Courant Number mean: 0.117773 max: 0.41389
Interface Courant Number mean: 0.0453413 max: 0.312643
deltaT = 0.0125
Time = 39.7375

PIMPLE: iteration 1
Execution time for mesh.update() = 0 s
MULES: Solving for alpha.water
Phase-1 volume fraction = 0.337803  Min(alpha.water) = -2.80599e-18  Max(alpha.water) = 1
MULES: Solving for alpha.water
Phase-1 volume fraction = 0.337802  Min(alpha.water) = -2.70687e-18  Max(alpha.water) = 1
MULES: Solving for alpha.water
Phase-1 volume fraction = 0.337801  Min(alpha.water) = -2.61195e-18  Max(alpha.water) = 1
smoothSolver:  Solving for T, Initial residual = 0.0125998, Final residual = 3.51909e-10, No Iterations 4
GAMG:  Solving for p_rgh, Initial residual = 0.0744808, Final residual = 0.00011825, No Iterations 2
GAMGPCG:  Solving for p_rgh, Initial residual = 0.0123141, Final residual = 2.55028e-10, No Iterations 5
ExecutionTime = 63.3 s


Courant Number mean: 0.113645 max: 0.399222
Interface Courant Number mean: 0.0427078 max: 0.301942
deltaT = 0.0125
Time = 39.75

PIMPLE: iteration 1
Execution time for mesh.update() = 0.01 s
MULES: Solving for alpha.water
Phase-1 volume fraction = 0.337801  Min(alpha.water) = -2.52806e-18  Max(alpha.water) = 1
MULES: Solving for alpha.water
Phase-1 volume fraction = 0.337801  Min(alpha.water) = -2.44752e-18  Max(alpha.water) = 1
MULES: Solving for alpha.water
Phase-1 volume fraction = 0.3378  Min(alpha.water) = -2.3699e-18  Max(alpha.water) = 1
smoothSolver:  Solving for T, Initial residual = 0.0122132, Final residual = 9.68335e-09, No Iterations 3
GAMG:  Solving for p_rgh, Initial residual = 0.066157, Final residual = 0.000109694, No Iterations 2
GAMGPCG:  Solving for p_rgh, Initial residual = 0.0111106, Final residual = 2.09219e-10, No Iterations 5
ExecutionTime = 63.35 s


Courant Number mean: 0.109895 max: 0.401906
Interface Courant Number mean: 0.0417778 max: 0.380754
deltaT = 0.0125
Time = 39.7625

PIMPLE: iteration 1
Execution time for mesh.update() = 0 s
MULES: Solving for alpha.water
Phase-1 volume fraction = 0.3378  Min(alpha.water) = -2.29708e-18  Max(alpha.water) = 1
MULES: Solving for alpha.water
Phase-1 volume fraction = 0.3378  Min(alpha.water) = -2.22731e-18  Max(alpha.water) = 1
MULES: Solving for alpha.water
Phase-1 volume fraction = 0.337799  Min(alpha.water) = -2.16314e-18  Max(alpha.water) = 1
smoothSolver:  Solving for T, Initial residual = 0.0130699, Final residual = 3.00031e-10, No Iterations 4
GAMG:  Solving for p_rgh, Initial residual = 0.062291, Final residual = 8.83652e-05, No Iterations 2
GAMGPCG:  Solving for p_rgh, Initial residual = 0.0104991, Final residual = 2.05052e-10, No Iterations 5
ExecutionTime = 63.36 s


Courant Number mean: 0.106526 max: 0.407126
Interface Courant Number mean: 0.0404539 max: 0.364974
deltaT = 0.0125
Time = 39.775

PIMPLE: iteration 1
Execution time for mesh.update() = 0 s
MULES: Solving for alpha.water
Phase-1 volume fraction = 0.337799  Min(alpha.water) = -2.10109e-18  Max(alpha.water) = 1
MULES: Solving for alpha.water
Phase-1 volume fraction = 0.337798  Min(alpha.water) = -2.04185e-18  Max(alpha.water) = 1
MULES: Solving for alpha.water
Phase-1 volume fraction = 0.337797  Min(alpha.water) = -1.9848e-18  Max(alpha.water) = 1
smoothSolver:  Solving for T, Initial residual = 0.012861, Final residual = 3.38227e-10, No Iterations 4
GAMG:  Solving for p_rgh, Initial residual = 0.0617946, Final residual = 0.00011076, No Iterations 2
GAMGPCG:  Solving for p_rgh, Initial residual = 0.00982393, Final residual = 1.50745e-10, No Iterations 5
ExecutionTime = 63.37 s


Courant Number mean: 0.103682 max: 0.411856
Interface Courant Number mean: 0.0385979 max: 0.35103
deltaT = 0.0125
Time = 39.7875

PIMPLE: iteration 1
Execution time for mesh.update() = 0 s
MULES: Solving for alpha.water
Phase-1 volume fraction = 0.337797  Min(alpha.water) = -1.93333e-18  Max(alpha.water) = 1
MULES: Solving for alpha.water
Phase-1 volume fraction = 0.337796  Min(alpha.water) = -1.30942e-18  Max(alpha.water) = 1
MULES: Solving for alpha.water
Phase-1 volume fraction = 0.337796  Min(alpha.water) = -9.20528e-19  Max(alpha.water) = 1
smoothSolver:  Solving for T, Initial residual = 0.0124541, Final residual = 1.98752e-10, No Iterations 4
GAMG:  Solving for p_rgh, Initial residual = 0.055548, Final residual = 0.00010054, No Iterations 2
GAMGPCG:  Solving for p_rgh, Initial residual = 0.00988515, Final residual = 3.86749e-10, No Iterations 5
ExecutionTime = 63.38 s


Courant Number mean: 0.101802 max: 0.416386
Interface Courant Number mean: 0.0373753 max: 0.338112
deltaT = 0.0125
Time = 39.8

PIMPLE: iteration 1
Execution time for mesh.update() = 0.01 s
MULES: Solving for alpha.water
Phase-1 volume fraction = 0.337795  Min(alpha.water) = -2.05536e-17  Max(alpha.water) = 1
MULES: Solving for alpha.water
Phase-1 volume fraction = 0.337795  Min(alpha.water) = -2.71716e-19  Max(alpha.water) = 1
MULES: Solving for alpha.water
Phase-1 volume fraction = 0.337794  Min(alpha.water) = -1.56934e-18  Max(alpha.water) = 1
smoothSolver:  Solving for T, Initial residual = 0.0119044, Final residual = 4.2057e-10, No Iterations 4
GAMG:  Solving for p_rgh, Initial residual = 0.0533725, Final residual = 8.27365e-05, No Iterations 2
GAMGPCG:  Solving for p_rgh, Initial residual = 0.00968192, Final residual = 3.19114e-10, No Iterations 5
ExecutionTime = 63.43 s


Courant Number mean: 0.100911 max: 0.419256
Interface Courant Number mean: 0.0371579 max: 0.32536
deltaT = 0.0125
Time = 39.8125

PIMPLE: iteration 1
Execution time for mesh.update() = 0 s
MULES: Solving for alpha.water
Phase-1 volume fraction = 0.337794  Min(alpha.water) = -1.41404e-18  Max(alpha.water) = 1
MULES: Solving for alpha.water
Phase-1 volume fraction = 0.337793  Min(alpha.water) = -1.84516e-18  Max(alpha.water) = 1
MULES: Solving for alpha.water
Phase-1 volume fraction = 0.337793  Min(alpha.water) = -1.81563e-18  Max(alpha.water) = 1
smoothSolver:  Solving for T, Initial residual = 0.0115408, Final residual = 2.30238e-10, No Iterations 4
GAMG:  Solving for p_rgh, Initial residual = 0.0513648, Final residual = 9.59051e-05, No Iterations 2
GAMGPCG:  Solving for p_rgh, Initial residual = 0.00947003, Final residual = 1.05971e-10, No Iterations 5
ExecutionTime = 63.44 s


Courant Number mean: 0.100969 max: 0.422807
Interface Courant Number mean: 0.036666 max: 0.321757
deltaT = 0.0125
Time = 39.825

PIMPLE: iteration 1
Execution time for mesh.update() = 0 s
MULES: Solving for alpha.water
Phase-1 volume fraction = 0.337792  Min(alpha.water) = -2.86707e-18  Max(alpha.water) = 1
MULES: Solving for alpha.water
Phase-1 volume fraction = 0.337792  Min(alpha.water) = -1.65433e-18  Max(alpha.water) = 1
MULES: Solving for alpha.water
Phase-1 volume fraction = 0.337791  Min(alpha.water) = -1.60624e-18  Max(alpha.water) = 1
smoothSolver:  Solving for T, Initial residual = 0.0112688, Final residual = 8.34126e-09, No Iterations 3
GAMG:  Solving for p_rgh, Initial residual = 0.0517549, Final residual = 8.5766e-05, No Iterations 2
GAMGPCG:  Solving for p_rgh, Initial residual = 0.00955287, Final residual = 1.71075e-10, No Iterations 5
ExecutionTime = 63.45 s


Courant Number mean: 0.102111 max: 0.430619
Interface Courant Number mean: 0.0375004 max: 0.339168
deltaT = 0.0125
Time = 39.8375

PIMPLE: iteration 1
Execution time for mesh.update() = 0 s
MULES: Solving for alpha.water
Phase-1 volume fraction = 0.337791  Min(alpha.water) = -2.21805e-18  Max(alpha.water) = 1
MULES: Solving for alpha.water
Phase-1 volume fraction = 0.337791  Min(alpha.water) = -1.60173e-18  Max(alpha.water) = 1
MULES: Solving for alpha.water
Phase-1 volume fraction = 0.337791  Min(alpha.water) = -1.47828e-18  Max(alpha.water) = 1
smoothSolver:  Solving for T, Initial residual = 0.0112683, Final residual = 7.34908e-09, No Iterations 3
GAMG:  Solving for p_rgh, Initial residual = 0.0523886, Final residual = 9.63921e-05, No Iterations 2
GAMGPCG:  Solving for p_rgh, Initial residual = 0.00996439, Final residual = 2.77947e-10, No Iterations 5
ExecutionTime = 63.46 s


Courant Number mean: 0.104445 max: 0.437932
Interface Courant Number mean: 0.0375365 max: 0.352852
deltaT = 0.0125
Time = 39.85

PIMPLE: iteration 1
Execution time for mesh.update() = 0 s
MULES: Solving for alpha.water
Phase-1 volume fraction = 0.337791  Min(alpha.water) = -1.37807e-18  Max(alpha.water) = 1
MULES: Solving for alpha.water
Phase-1 volume fraction = 0.337791  Min(alpha.water) = -7.05718e-14  Max(alpha.water) = 1
MULES: Solving for alpha.water
Phase-1 volume fraction = 0.33779  Min(alpha.water) = -6.39194e-16  Max(alpha.water) = 1
smoothSolver:  Solving for T, Initial residual = 0.0118382, Final residual = 2.05804e-10, No Iterations 4
GAMG:  Solving for p_rgh, Initial residual = 0.0513358, Final residual = 9.7382e-05, No Iterations 2
GAMGPCG:  Solving for p_rgh, Initial residual = 0.0097173, Final residual = 6.12477e-10, No Iterations 5
ExecutionTime = 63.51 s


Courant Number mean: 0.107731 max: 0.444261
Interface Courant Number mean: 0.0386321 max: 0.361233
deltaT = 0.0125
Time = 39.8625

PIMPLE: iteration 1
Execution time for mesh.update() = 0 s
MULES: Solving for alpha.water
Phase-1 volume fraction = 0.33779  Min(alpha.water) = -5.81978e-16  Max(alpha.water) = 1
MULES: Solving for alpha.water
Phase-1 volume fraction = 0.33779  Min(alpha.water) = -5.29892e-16  Max(alpha.water) = 1
MULES: Solving for alpha.water
Phase-1 volume fraction = 0.33779  Min(alpha.water) = -4.8247e-16  Max(alpha.water) = 1
smoothSolver:  Solving for T, Initial residual = 0.012283, Final residual = 2.44458e-10, No Iterations 4
GAMG:  Solving for p_rgh, Initial residual = 0.0525321, Final residual = 0.000104228, No Iterations 2
GAMGPCG:  Solving for p_rgh, Initial residual = 0.00974274, Final residual = 2.16697e-10, No Iterations 5
ExecutionTime = 63.52 s


Courant Number mean: 0.111779 max: 0.449218
Interface Courant Number mean: 0.0397499 max: 0.364441
deltaT = 0.0125
Time = 39.875

PIMPLE: iteration 1
Execution time for mesh.update() = 0 s
MULES: Solving for alpha.water
Phase-1 volume fraction = 0.337789  Min(alpha.water) = -4.35742e-16  Max(alpha.water) = 1
MULES: Solving for alpha.water
Phase-1 volume fraction = 0.337789  Min(alpha.water) = -3.93551e-16  Max(alpha.water) = 1
MULES: Solving for alpha.water
Phase-1 volume fraction = 0.337789  Min(alpha.water) = -3.55397e-16  Max(alpha.water) = 1
smoothSolver:  Solving for T, Initial residual = 0.0128391, Final residual = 3.69373e-10, No Iterations 4
GAMG:  Solving for p_rgh, Initial residual = 0.0542927, Final residual = 0.000133781, No Iterations 2
GAMGPCG:  Solving for p_rgh, Initial residual = 0.010913, Final residual = 2.20581e-10, No Iterations 5
ExecutionTime = 63.53 s


Courant Number mean: 0.116512 max: 0.452403
Interface Courant Number mean: 0.0419987 max: 0.387897
deltaT = 0.0125
Time = 39.8875

PIMPLE: iteration 1
Execution time for mesh.update() = 0 s
MULES: Solving for alpha.water
Phase-1 volume fraction = 0.337789  Min(alpha.water) = -3.18673e-16  Max(alpha.water) = 1
MULES: Solving for alpha.water
Phase-1 volume fraction = 0.337788  Min(alpha.water) = -2.85716e-16  Max(alpha.water) = 1
MULES: Solving for alpha.water
Phase-1 volume fraction = 0.337788  Min(alpha.water) = -2.55882e-16  Max(alpha.water) = 1
smoothSolver:  Solving for T, Initial residual = 0.0133915, Final residual = 4.83107e-10, No Iterations 4
GAMG:  Solving for p_rgh, Initial residual = 0.0577376, Final residual = 0.000158565, No Iterations 2
GAMGPCG:  Solving for p_rgh, Initial residual = 0.0113113, Final residual = 2.94337e-10, No Iterations 5
ExecutionTime = 63.54 s


Courant Number mean: 0.12192 max: 0.453602
Interface Courant Number mean: 0.0438318 max: 0.39476
deltaT = 0.0125
Time = 39.9

PIMPLE: iteration 1
Execution time for mesh.update() = 0 s
MULES: Solving for alpha.water
Phase-1 volume fraction = 0.337788  Min(alpha.water) = -2.27565e-16  Max(alpha.water) = 1
MULES: Solving for alpha.water
Phase-1 volume fraction = 0.337788  Min(alpha.water) = -2.05441e-13  Max(alpha.water) = 1
MULES: Solving for alpha.water
Phase-1 volume fraction = 0.337787  Min(alpha.water) = -1.97646e-13  Max(alpha.water) = 1
smoothSolver:  Solving for T, Initial residual = 0.0138175, Final residual = 3.34099e-10, No Iterations 4
GAMG:  Solving for p_rgh, Initial residual = 0.0594932, Final residual = 0.00011184, No Iterations 2
GAMGPCG:  Solving for p_rgh, Initial residual = 0.0112787, Final residual = 3.70337e-10, No Iterations 5
ExecutionTime = 63.58 s


Courant Number mean: 0.127734 max: 0.454178
Interface Courant Number mean: 0.0457894 max: 0.420141
deltaT = 0.0125
Time = 39.9125

PIMPLE: iteration 1
Execution time for mesh.update() = 0 s
MULES: Solving for alpha.water
Phase-1 volume fraction = 0.337787  Min(alpha.water) = -1.89829e-13  Max(alpha.water) = 1
MULES: Solving for alpha.water
Phase-1 volume fraction = 0.337787  Min(alpha.water) = -1.82319e-13  Max(alpha.water) = 1
MULES: Solving for alpha.water
Phase-1 volume fraction = 0.337787  Min(alpha.water) = -1.751e-13  Max(alpha.water) = 1
smoothSolver:  Solving for T, Initial residual = 0.0142018, Final residual = 3.41158e-10, No Iterations 4
GAMG:  Solving for p_rgh, Initial residual = 0.0607087, Final residual = 0.000107726, No Iterations 2
GAMGPCG:  Solving for p_rgh, Initial residual = 0.0114016, Final residual = 2.51441e-10, No Iterations 5
ExecutionTime = 63.6 s


Courant Number mean: 0.133512 max: 0.454699
Interface Courant Number mean: 0.0475138 max: 0.446977
deltaT = 0.0125
Time = 39.925

PIMPLE: iteration 1
Execution time for mesh.update() = 0 s
MULES: Solving for alpha.water
Phase-1 volume fraction = 0.337787  Min(alpha.water) = -1.67854e-13  Max(alpha.water) = 1
MULES: Solving for alpha.water
Phase-1 volume fraction = 0.337787  Min(alpha.water) = -1.60903e-13  Max(alpha.water) = 1
MULES: Solving for alpha.water
Phase-1 volume fraction = 0.337787  Min(alpha.water) = -1.54233e-13  Max(alpha.water) = 1
smoothSolver:  Solving for T, Initial residual = 0.0146581, Final residual = 5.31886e-10, No Iterations 4
GAMG:  Solving for p_rgh, Initial residual = 0.0662555, Final residual = 8.46097e-05, No Iterations 2
GAMGPCG:  Solving for p_rgh, Initial residual = 0.0119274, Final residual = 2.86179e-10, No Iterations 5
ExecutionTime = 63.61 s


Courant Number mean: 0.139513 max: 0.475051
Interface Courant Number mean: 0.0516941 max: 0.475051
deltaT = 0.0125
Time = 39.9375

PIMPLE: iteration 1
Execution time for mesh.update() = 0 s
MULES: Solving for alpha.water
Phase-1 volume fraction = 0.337787  Min(alpha.water) = -1.47549e-13  Max(alpha.water) = 1
MULES: Solving for alpha.water
Phase-1 volume fraction = 0.337787  Min(alpha.water) = -1.41148e-13  Max(alpha.water) = 1
MULES: Solving for alpha.water
Phase-1 volume fraction = 0.337787  Min(alpha.water) = -1.35021e-13  Max(alpha.water) = 1
smoothSolver:  Solving for T, Initial residual = 0.0150923, Final residual = 9.25309e-10, No Iterations 4
GAMG:  Solving for p_rgh, Initial residual = 0.0712559, Final residual = 0.000151922, No Iterations 2
GAMGPCG:  Solving for p_rgh, Initial residual = 0.013998, Final residual = 2.61572e-10, No Iterations 5
ExecutionTime = 63.62 s


Courant Number mean: 0.145545 max: 0.502715
Interface Courant Number mean: 0.0532225 max: 0.502313
deltaT = 0.0125
Time = 39.95

PIMPLE: iteration 1
Execution time for mesh.update() = 0 s
MULES: Solving for alpha.water
Phase-1 volume fraction = 0.337787  Min(alpha.water) = -1.2897e-13  Max(alpha.water) = 1
MULES: Solving for alpha.water
Phase-1 volume fraction = 0.337787  Min(alpha.water) = -1.23187e-13  Max(alpha.water) = 1
MULES: Solving for alpha.water
Phase-1 volume fraction = 0.337787  Min(alpha.water) = -1.17659e-13  Max(alpha.water) = 1
smoothSolver:  Solving for T, Initial residual = 0.0157576, Final residual = 9.14632e-10, No Iterations 4
GAMG:  Solving for p_rgh, Initial residual = 0.0783113, Final residual = 0.000241787, No Iterations 2
GAMGPCG:  Solving for p_rgh, Initial residual = 0.0163749, Final residual = 3.94973e-10, No Iterations 5
ExecutionTime = 63.67 s


Courant Number mean: 0.15143 max: 0.527452
Interface Courant Number mean: 0.0564346 max: 0.527452
deltaT = 0.0125
Time = 39.9625

PIMPLE: iteration 1
Execution time for mesh.update() = 0 s
MULES: Solving for alpha.water
Phase-1 volume fraction = 0.337787  Min(alpha.water) = -1.12291e-13  Max(alpha.water) = 1
MULES: Solving for alpha.water
Phase-1 volume fraction = 0.337787  Min(alpha.water) = -7.87286e-13  Max(alpha.water) = 1
MULES: Solving for alpha.water
Phase-1 volume fraction = 0.337787  Min(alpha.water) = -1.0227e-13  Max(alpha.water) = 1
smoothSolver:  Solving for T, Initial residual = 0.0162561, Final residual = 1.81008e-09, No Iterations 4
GAMG:  Solving for p_rgh, Initial residual = 0.0836277, Final residual = 0.000206859, No Iterations 2
GAMGPCG:  Solving for p_rgh, Initial residual = 0.0168526, Final residual = 3.74605e-10, No Iterations 5
ExecutionTime = 63.68 s


Courant Number mean: 0.157299 max: 0.554675
Interface Courant Number mean: 0.0580553 max: 0.554675
deltaT = 0.0125
Time = 39.975

PIMPLE: iteration 1
Execution time for mesh.update() = 0 s
MULES: Solving for alpha.water
Phase-1 volume fraction = 0.337787  Min(alpha.water) = -9.75826e-14  Max(alpha.water) = 1
MULES: Solving for alpha.water
Phase-1 volume fraction = 0.337787  Min(alpha.water) = -9.31076e-14  Max(alpha.water) = 1
MULES: Solving for alpha.water
Phase-1 volume fraction = 0.337787  Min(alpha.water) = -8.88353e-14  Max(alpha.water) = 1
smoothSolver:  Solving for T, Initial residual = 0.0165321, Final residual = 4.70637e-09, No Iterations 4
GAMG:  Solving for p_rgh, Initial residual = 0.0875628, Final residual = 0.000198255, No Iterations 2
GAMGPCG:  Solving for p_rgh, Initial residual = 0.0163655, Final residual = 7.75126e-10, No Iterations 5
ExecutionTime = 63.69 s


Courant Number mean: 0.163108 max: 0.581694
Interface Courant Number mean: 0.0600965 max: 0.581674
deltaT = 0.0125
Time = 39.9875

PIMPLE: iteration 1
Execution time for mesh.update() = 0 s
MULES: Solving for alpha.water
Phase-1 volume fraction = 0.337787  Min(alpha.water) = -8.44487e-14  Max(alpha.water) = 1
MULES: Solving for alpha.water
Phase-1 volume fraction = 0.337787  Min(alpha.water) = -8.02785e-14  Max(alpha.water) = 1
MULES: Solving for alpha.water
Phase-1 volume fraction = 0.337787  Min(alpha.water) = -4.46336e-13  Max(alpha.water) = 1
smoothSolver:  Solving for T, Initial residual = 0.0164959, Final residual = 2.21399e-09, No Iterations 4
GAMG:  Solving for p_rgh, Initial residual = 0.0788174, Final residual = 0.00013969, No Iterations 2
GAMGPCG:  Solving for p_rgh, Initial residual = 0.0183878, Final residual = 6.78848e-10, No Iterations 5
ExecutionTime = 63.7 s


Courant Number mean: 0.168815 max: 0.605917
Interface Courant Number mean: 0.0606422 max: 0.605917
deltaT = 0.0125
Time = 40

PIMPLE: iteration 1
Execution time for mesh.update() = 0.01 s
MULES: Solving for alpha.water
Phase-1 volume fraction = 0.337787  Min(alpha.water) = -4.05089e-13  Max(alpha.water) = 1
MULES: Solving for alpha.water
Phase-1 volume fraction = 0.337787  Min(alpha.water) = -3.67655e-13  Max(alpha.water) = 1
MULES: Solving for alpha.water
Phase-1 volume fraction = 0.337787  Min(alpha.water) = -3.33679e-13  Max(alpha.water) = 1
smoothSolver:  Solving for T, Initial residual = 0.0166095, Final residual = 3.859e-09, No Iterations 4
GAMG:  Solving for p_rgh, Initial residual = 0.103574, Final residual = 0.000247511, No Iterations 2
GAMGPCG:  Solving for p_rgh, Initial residual = 0.0212785, Final residual = 8.66063e-10, No Iterations 5
ExecutionTime = 63.74 s


End

