/*---------------------------------------------------------------------------*\
| =========                 |                                                 |
| \\      /  F ield         | OpenFOAM: The Open Source CFD Toolbox           |
|  \\    /   O peration     | Version:  v1712                                 |
|   \\  /    A nd           | Web:      www.OpenFOAM.com                      |
|    \\/     M anipulation  |                                                 |
\*---------------------------------------------------------------------------*/
Build  : v1712
Arch   : "LSB;label=32;scalar=64"
Exec   : reconstructPar -allRegions
Date   : Jan 05 2018
Time   : 06:48:47
Host   : "inabower-PC"
PID    : 29374
I/O    : uncollated
Case   : /media/inabower/3C9455F89455B55C/inabower/tutorials-v1712/heatTransfer/chtMultiRegionFoam/externalCoupledHeater
nProcs : 1
trapFpe: Floating point exception trapping enabled (FOAM_SIGFPE).
fileModificationChecking : Monitoring run-time modified files using timeStampMaster (fileModificationSkew 10)
allowSystemOperations : Allowing user-supplied system call operations

// * * * * * * * * * * * * * * * * * * * * * * * * * * * * * * * * * * * * * //
Create time

Reconstructing all regions in regionProperties



Reconstructing fields for mesh bottomWater

Time = 0.1

Reconstructing FV fields

    Reconstructing volScalarFields

        p
        T
        p_rgh
        rho

    Reconstructing volVectorFields

        U

    Reconstructing surfaceScalarFields

        phi

Reconstructing point fields

No point fields

No lagrangian fields

No FA fields

Time = 0.2

Reconstructing FV fields

    Reconstructing volScalarFields

        p
        T
        p_rgh
        rho

    Reconstructing volVectorFields

        U

    Reconstructing surfaceScalarFields

        phi

Reconstructing point fields

No point fields

No lagrangian fields

No FA fields

Time = 0.3

Reconstructing FV fields

    Reconstructing volScalarFields

        p
        T
        p_rgh
        rho

    Reconstructing volVectorFields

        U

    Reconstructing surfaceScalarFields

        phi

Reconstructing point fields

No point fields

No lagrangian fields

No FA fields

Time = 0.4

Reconstructing FV fields

    Reconstructing volScalarFields

        p
        T
        p_rgh
        rho

    Reconstructing volVectorFields

        U

    Reconstructing surfaceScalarFields

        phi

Reconstructing point fields

No point fields

No lagrangian fields

No FA fields

Time = 0.5

Reconstructing FV fields

    Reconstructing volScalarFields

        p
        T
        p_rgh
        rho

    Reconstructing volVectorFields

        U

    Reconstructing surfaceScalarFields

        phi

Reconstructing point fields

No point fields

No lagrangian fields

No FA fields



Reconstructing fields for mesh heater

Time = 0.1

Reconstructing FV fields

    Reconstructing volScalarFields

        p
        T

Reconstructing point fields

No point fields

No lagrangian fields

No FA fields

Time = 0.2

Reconstructing FV fields

    Reconstructing volScalarFields

        p
        T

Reconstructing point fields

No point fields

No lagrangian fields

No FA fields

Time = 0.3

Reconstructing FV fields

    Reconstructing volScalarFields

        p
        T

Reconstructing point fields

No point fields

No lagrangian fields

No FA fields

Time = 0.4

Reconstructing FV fields

    Reconstructing volScalarFields

        p
        T

Reconstructing point fields

No point fields

No lagrangian fields

No FA fields

Time = 0.5

Reconstructing FV fields

    Reconstructing volScalarFields

        p
        T

Reconstructing point fields

No point fields

No lagrangian fields

No FA fields



Reconstructing fields for mesh leftSolid

Time = 0.1

Reconstructing FV fields

    Reconstructing volScalarFields

        p
        T

Reconstructing point fields

No point fields

No lagrangian fields

No FA fields

Time = 0.2

Reconstructing FV fields

    Reconstructing volScalarFields

        p
        T

Reconstructing point fields

No point fields

No lagrangian fields

No FA fields

Time = 0.3

Reconstructing FV fields

    Reconstructing volScalarFields

        p
        T

Reconstructing point fields

No point fields

No lagrangian fields

No FA fields

Time = 0.4

Reconstructing FV fields

    Reconstructing volScalarFields

        p
        T

Reconstructing point fields

No point fields

No lagrangian fields

No FA fields

Time = 0.5

Reconstructing FV fields

    Reconstructing volScalarFields

        p
        T

Reconstructing point fields

No point fields

No lagrangian fields

No FA fields



Reconstructing fields for mesh rightSolid

Time = 0.1

Reconstructing FV fields

    Reconstructing volScalarFields

        p
        T

Reconstructing point fields

No point fields

No lagrangian fields

No FA fields

Time = 0.2

Reconstructing FV fields

    Reconstructing volScalarFields

        p
        T

Reconstructing point fields

No point fields

No lagrangian fields

No FA fields

Time = 0.3

Reconstructing FV fields

    Reconstructing volScalarFields

        p
        T

Reconstructing point fields

No point fields

No lagrangian fields

No FA fields

Time = 0.4

Reconstructing FV fields

    Reconstructing volScalarFields

        p
        T

Reconstructing point fields

No point fields

No lagrangian fields

No FA fields

Time = 0.5

Reconstructing FV fields

    Reconstructing volScalarFields

        p
        T

Reconstructing point fields

No point fields

No lagrangian fields

No FA fields



Reconstructing fields for mesh topAir

Time = 0.1

Reconstructing FV fields

    Reconstructing volScalarFields

        p
        T
        p_rgh
        rho

    Reconstructing volVectorFields

        U

    Reconstructing surfaceScalarFields

        phi

Reconstructing point fields

No point fields

No lagrangian fields

No FA fields

Time = 0.2

Reconstructing FV fields

    Reconstructing volScalarFields

        p
        T
        p_rgh
        rho

    Reconstructing volVectorFields

        U

    Reconstructing surfaceScalarFields

        phi

Reconstructing point fields

No point fields

No lagrangian fields

No FA fields

Time = 0.3

Reconstructing FV fields

    Reconstructing volScalarFields

        p
        T
        p_rgh
        rho

    Reconstructing volVectorFields

        U

    Reconstructing surfaceScalarFields

        phi

Reconstructing point fields

No point fields

No lagrangian fields

No FA fields

Time = 0.4

Reconstructing FV fields

    Reconstructing volScalarFields

        p
        T
        p_rgh
        rho

    Reconstructing volVectorFields

        U

    Reconstructing surfaceScalarFields

        phi

Reconstructing point fields

No point fields

No lagrangian fields

No FA fields

Time = 0.5

Reconstructing FV fields

    Reconstructing volScalarFields

        p
        T
        p_rgh
        rho

    Reconstructing volVectorFields

        U

    Reconstructing surfaceScalarFields

        phi

Reconstructing point fields

No point fields

No lagrangian fields

No FA fields


End

