/*---------------------------------------------------------------------------*\
| =========                 |                                                 |
| \\      /  F ield         | OpenFOAM: The Open Source CFD Toolbox           |
|  \\    /   O peration     | Version:  v1712                                 |
|   \\  /    A nd           | Web:      www.OpenFOAM.com                      |
|    \\/     M anipulation  |                                                 |
\*---------------------------------------------------------------------------*/
Build  : v1712
Arch   : "LSB;label=32;scalar=64"
Exec   : reactingTwoPhaseEulerFoam
Date   : Jan 05 2018
Time   : 00:48:35
Host   : "inabower-PC"
PID    : 11791
I/O    : uncollated
Case   : /media/inabower/3C9455F89455B55C/inabower/tutorials-v1712/multiphase/reactingTwoPhaseEulerFoam/laminar/injection
nProcs : 1
trapFpe: Floating point exception trapping enabled (FOAM_SIGFPE).
fileModificationChecking : Monitoring run-time modified files using timeStampMaster (fileModificationSkew 10)
allowSystemOperations : Allowing user-supplied system call operations

// * * * * * * * * * * * * * * * * * * * * * * * * * * * * * * * * * * * * * //
Create time

Create mesh for time = 0


PIMPLE: no residual control data found. Calculations will employ 3 corrector loops


Reading g

Reading hRef
Creating phaseSystem

Selecting twoPhaseSystem heatAndMomentumTransferTwoPhaseSystem
Selecting phaseModel for air: purePhaseModel
Selecting diameterModel for phase air: isothermal
Selecting thermodynamics package 
{
    type            heRhoThermo;
    mixture         pureMixture;
    transport       const;
    thermo          hConst;
    equationOfState perfectGas;
    specie          specie;
    energy          sensibleInternalEnergy;
}

Calculating face flux field phi.air
Selecting turbulence model type laminar
Selecting laminar stress model Stokes
Selecting phaseModel for water: purePhaseModel
Selecting diameterModel for phase water: constant
Selecting thermodynamics package 
{
    type            heRhoThermo;
    mixture         pureMixture;
    transport       const;
    thermo          hConst;
    equationOfState perfectFluid;
    specie          specie;
    energy          sensibleInternalEnergy;
}

Calculating face flux field phi.water
Selecting turbulence model type laminar
Selecting laminar stress model Stokes
No MRF models present

Selecting default blending method: linear
Selecting surfaceTensionModel for (air and water): constant
Selecting aspectRatioModel for (air in water): constant
Selecting aspectRatioModel for (water in air): constant
Selecting dragModel for (air and water): segregated
Selecting swarmCorrection for (air and water): none
Selecting dragModel for (air in water): SchillerNaumann
Selecting swarmCorrection for (air in water): none
Selecting dragModel for (water in air): SchillerNaumann
Selecting swarmCorrection for (water in air): none
Selecting virtualMassModel for (air in water): constantCoefficient
Selecting virtualMassModel for (water in air): constantCoefficient
Selecting heatTransferModel for (air in water): RanzMarshall
Selecting heatTransferModel for (water in air): RanzMarshall
Calculating field g.h

Reading field p_rgh

Creating finite volume options from "constant/fvOptions"

Selecting finite volume options type scalarSemiImplicitSource
    Source: massSource1
    - selecting cells using points
    - selected 1 cell(s) with volume 8e-06
Selecting finite volume options type vectorSemiImplicitSource
    Source: momentumSource1
    - selecting cells using points
    - selected 1 cell(s) with volume 8e-06
Selecting finite volume options type scalarSemiImplicitSource
    Source: energySource1
    - selecting cells using points
    - selected 1 cell(s) with volume 8e-06
Courant Number mean: 0 max: 0

Starting time loop

Courant Number mean: 0 max: 0
Max Ur Courant Number = 0
Time = 0.005

PIMPLE: iteration 1
MULES: Solving for alpha.air
MULES: Solving for alpha.air
alpha.air volume fraction = 0.293333  Min(alpha1) = 0  Max(alpha1) = 1
Constructing momentum equations
smoothSolver:  Solving for e.air, Initial residual = 0.00248562, Final residual = 0.00202407, No Iterations 1000
smoothSolver:  Solving for e.water, Initial residual = 0.00402093, Final residual = 0.00367231, No Iterations 1000
GAMG:  Solving for p_rgh, Initial residual = 1.27106e-05, Final residual = 9.9537e-09, No Iterations 15
PIMPLE: iteration 2
MULES: Solving for alpha.air
MULES: Solving for alpha.air
alpha.air volume fraction = 0.293336  Min(alpha1) = 0  Max(alpha1) = 1
Constructing momentum equations
smoothSolver:  Solving for e.air, Initial residual = 1, Final residual = 9.83367e-11, No Iterations 2
smoothSolver:  Solving for e.water, Initial residual = 1, Final residual = 2.42253e-07, No Iterations 1000
GAMG:  Solving for p_rgh, Initial residual = 0.000173868, Final residual = 9.8945e-09, No Iterations 9
PIMPLE: iteration 3
MULES: Solving for alpha.air
MULES: Solving for alpha.air
alpha.air volume fraction = 0.293336  Min(alpha1) = 0  Max(alpha1) = 1
Constructing momentum equations
smoothSolver:  Solving for e.air, Initial residual = 0.296227, Final residual = 2.46011e-11, No Iterations 2
smoothSolver:  Solving for e.water, Initial residual = 0.39207, Final residual = 1.91482e-07, No Iterations 1000
GAMG:  Solving for p_rgh, Initial residual = 0.000183844, Final residual = 8.09856e-09, No Iterations 10
ExecutionTime = 0.23 s


Courant Number mean: 0.000210871 max: 0.000484624
Max Ur Courant Number = 1.30834
Time = 0.01

PIMPLE: iteration 1
MULES: Solving for alpha.air
MULES: Solving for alpha.air
alpha.air volume fraction = 0.293338  Min(alpha1) = 0  Max(alpha1) = 1
Constructing momentum equations
smoothSolver:  Solving for e.air, Initial residual = 0.486685, Final residual = 4.25481e-11, No Iterations 2
smoothSolver:  Solving for e.water, Initial residual = 0.000116271, Final residual = 2.35372e-11, No Iterations 1
GAMG:  Solving for p_rgh, Initial residual = 4.31883e-05, Final residual = 9.29073e-09, No Iterations 8
PIMPLE: iteration 2
MULES: Solving for alpha.air
MULES: Solving for alpha.air
alpha.air volume fraction = 0.293336  Min(alpha1) = 0  Max(alpha1) = 1
Constructing momentum equations
smoothSolver:  Solving for e.air, Initial residual = 0.775819, Final residual = 6.68299e-11, No Iterations 2
smoothSolver:  Solving for e.water, Initial residual = 0.00018863, Final residual = 3.88194e-11, No Iterations 1
GAMG:  Solving for p_rgh, Initial residual = 1.4999e-05, Final residual = 7.34354e-09, No Iterations 6
PIMPLE: iteration 3
MULES: Solving for alpha.air
MULES: Solving for alpha.air
alpha.air volume fraction = 0.293336  Min(alpha1) = -7.36676e-42  Max(alpha1) = 1
Constructing momentum equations
smoothSolver:  Solving for e.air, Initial residual = 0.460312, Final residual = 4.16396e-11, No Iterations 2
smoothSolver:  Solving for e.water, Initial residual = 2.82882e-05, Final residual = 1.81557e-11, No Iterations 1
GAMG:  Solving for p_rgh, Initial residual = 3.49326e-06, Final residual = 4.81363e-09, No Iterations 5
ExecutionTime = 0.26 s


Courant Number mean: 6.18802e-06 max: 0.000162749
Max Ur Courant Number = 0.0869651
Time = 0.015

PIMPLE: iteration 1
MULES: Solving for alpha.air
MULES: Solving for alpha.air
alpha.air volume fraction = 0.293336  Min(alpha1) = 0  Max(alpha1) = 1
Constructing momentum equations
smoothSolver:  Solving for e.air, Initial residual = 0.128371, Final residual = 1.55412e-11, No Iterations 2
smoothSolver:  Solving for e.water, Initial residual = 6.50524e-05, Final residual = 5.66252e-11, No Iterations 1
GAMG:  Solving for p_rgh, Initial residual = 2.32756e-05, Final residual = 8.51438e-09, No Iterations 8
PIMPLE: iteration 2
MULES: Solving for alpha.air
MULES: Solving for alpha.air
alpha.air volume fraction = 0.293336  Min(alpha1) = -1.71057e-51  Max(alpha1) = 1
Constructing momentum equations
smoothSolver:  Solving for e.air, Initial residual = 0.141465, Final residual = 1.451e-11, No Iterations 2
smoothSolver:  Solving for e.water, Initial residual = 1.04869e-05, Final residual = 2.51412e-11, No Iterations 1
GAMG:  Solving for p_rgh, Initial residual = 2.09937e-06, Final residual = 6.92086e-09, No Iterations 5
PIMPLE: iteration 3
MULES: Solving for alpha.air
MULES: Solving for alpha.air
alpha.air volume fraction = 0.293336  Min(alpha1) = -1.33638e-53  Max(alpha1) = 1
Constructing momentum equations
smoothSolver:  Solving for e.air, Initial residual = 0.133842, Final residual = 1.45831e-11, No Iterations 2
smoothSolver:  Solving for e.water, Initial residual = 9.7375e-06, Final residual = 2.88221e-11, No Iterations 1
GAMG:  Solving for p_rgh, Initial residual = 5.40658e-07, Final residual = 7.35539e-09, No Iterations 3
ExecutionTime = 0.29 s


Courant Number mean: 6.43019e-06 max: 0.000132788
Max Ur Courant Number = 0.388777
Time = 0.02

PIMPLE: iteration 1
MULES: Solving for alpha.air
MULES: Solving for alpha.air
alpha.air volume fraction = 0.293336  Min(alpha1) = 0  Max(alpha1) = 1
Constructing momentum equations
smoothSolver:  Solving for e.air, Initial residual = 0.0685206, Final residual = 1.09625e-11, No Iterations 2
smoothSolver:  Solving for e.water, Initial residual = 2.68668e-05, Final residual = 2.54687e-11, No Iterations 1
GAMG:  Solving for p_rgh, Initial residual = 5.29687e-06, Final residual = 5.86131e-09, No Iterations 7
PIMPLE: iteration 2
MULES: Solving for alpha.air
MULES: Solving for alpha.air
alpha.air volume fraction = 0.293336  Min(alpha1) = -1.08439e-56  Max(alpha1) = 1
Constructing momentum equations
smoothSolver:  Solving for e.air, Initial residual = 0.0991645, Final residual = 1.2313e-11, No Iterations 2
smoothSolver:  Solving for e.water, Initial residual = 1.23383e-05, Final residual = 2.57989e-11, No Iterations 1
GAMG:  Solving for p_rgh, Initial residual = 1.95966e-07, Final residual = 3.91222e-09, No Iterations 5
PIMPLE: iteration 3
MULES: Solving for alpha.air
MULES: Solving for alpha.air
alpha.air volume fraction = 0.293336  Min(alpha1) = -1.24901e-62  Max(alpha1) = 1
Constructing momentum equations
smoothSolver:  Solving for e.air, Initial residual = 0.063069, Final residual = 1.06592e-11, No Iterations 2
smoothSolver:  Solving for e.water, Initial residual = 6.05003e-06, Final residual = 2.59811e-11, No Iterations 1
GAMG:  Solving for p_rgh, Initial residual = 1.00253e-06, Final residual = 5.42383e-09, No Iterations 3
ExecutionTime = 0.32 s


Courant Number mean: 6.33893e-06 max: 0.000183547
Max Ur Courant Number = 0.0997673
Time = 0.025

PIMPLE: iteration 1
MULES: Solving for alpha.air
MULES: Solving for alpha.air
alpha.air volume fraction = 0.293336  Min(alpha1) = -2.26392e-74  Max(alpha1) = 1
Constructing momentum equations
smoothSolver:  Solving for e.air, Initial residual = 0.035371, Final residual = 1.0298e-11, No Iterations 2
smoothSolver:  Solving for e.water, Initial residual = 2.98989e-05, Final residual = 2.68765e-11, No Iterations 1
GAMG:  Solving for p_rgh, Initial residual = 9.08483e-06, Final residual = 1.67114e-09, No Iterations 6
PIMPLE: iteration 2
MULES: Solving for alpha.air
MULES: Solving for alpha.air
alpha.air volume fraction = 0.293336  Min(alpha1) = -2.14025e-65  Max(alpha1) = 1
Constructing momentum equations
smoothSolver:  Solving for e.air, Initial residual = 0.0363847, Final residual = 1.02662e-11, No Iterations 2
smoothSolver:  Solving for e.water, Initial residual = 1.39199e-05, Final residual = 2.6378e-11, No Iterations 1
GAMG:  Solving for p_rgh, Initial residual = 1.00491e-06, Final residual = 8.02698e-09, No Iterations 5
PIMPLE: iteration 3
MULES: Solving for alpha.air
MULES: Solving for alpha.air
alpha.air volume fraction = 0.293336  Min(alpha1) = -1.05828e-57  Max(alpha1) = 1
Constructing momentum equations
smoothSolver:  Solving for e.air, Initial residual = 0.0706382, Final residual = 1.28833e-11, No Iterations 2
smoothSolver:  Solving for e.water, Initial residual = 4.5868e-06, Final residual = 2.63049e-11, No Iterations 1
GAMG:  Solving for p_rgh, Initial residual = 6.54997e-07, Final residual = 8.0267e-09, No Iterations 2
ExecutionTime = 0.35 s


Courant Number mean: 1.45193e-05 max: 0.000427556
Max Ur Courant Number = 0.296426
Time = 0.03

PIMPLE: iteration 1
MULES: Solving for alpha.air
MULES: Solving for alpha.air
alpha.air volume fraction = 0.293336  Min(alpha1) = -4.81665e-93  Max(alpha1) = 1
Constructing momentum equations
smoothSolver:  Solving for e.air, Initial residual = 0.0416607, Final residual = 1.05753e-11, No Iterations 2
smoothSolver:  Solving for e.water, Initial residual = 4.18705e-05, Final residual = 2.78606e-11, No Iterations 1
GAMG:  Solving for p_rgh, Initial residual = 4.22226e-06, Final residual = 1.26748e-09, No Iterations 7
PIMPLE: iteration 2
MULES: Solving for alpha.air
MULES: Solving for alpha.air
alpha.air volume fraction = 0.293336  Min(alpha1) = -1.27552e-55  Max(alpha1) = 1
Constructing momentum equations
smoothSolver:  Solving for e.air, Initial residual = 0.0559445, Final residual = 1.13539e-11, No Iterations 2
smoothSolver:  Solving for e.water, Initial residual = 2.09347e-05, Final residual = 2.96228e-11, No Iterations 1
GAMG:  Solving for p_rgh, Initial residual = 1.35127e-06, Final residual = 5.07436e-09, No Iterations 5
PIMPLE: iteration 3
MULES: Solving for alpha.air
MULES: Solving for alpha.air
alpha.air volume fraction = 0.293336  Min(alpha1) = -5.43341e-72  Max(alpha1) = 1
Constructing momentum equations
smoothSolver:  Solving for e.air, Initial residual = 0.0172779, Final residual = 1.10501e-11, No Iterations 2
smoothSolver:  Solving for e.water, Initial residual = 3.81558e-06, Final residual = 2.61274e-11, No Iterations 1
GAMG:  Solving for p_rgh, Initial residual = 1.02328e-06, Final residual = 7.74751e-09, No Iterations 1
ExecutionTime = 0.39 s


Courant Number mean: 3.12668e-05 max: 0.000891375
Max Ur Courant Number = 0.111268
Time = 0.035

PIMPLE: iteration 1
MULES: Solving for alpha.air
MULES: Solving for alpha.air
alpha.air volume fraction = 0.293336  Min(alpha1) = -9.94887e-77  Max(alpha1) = 1
Constructing momentum equations
smoothSolver:  Solving for e.air, Initial residual = 0.0252624, Final residual = 1.20578e-11, No Iterations 2
smoothSolver:  Solving for e.water, Initial residual = 4.38437e-05, Final residual = 2.75152e-11, No Iterations 1
GAMG:  Solving for p_rgh, Initial residual = 6.55733e-06, Final residual = 7.28781e-09, No Iterations 4
PIMPLE: iteration 2
MULES: Solving for alpha.air
MULES: Solving for alpha.air
alpha.air volume fraction = 0.293336  Min(alpha1) = -8.22141e-32  Max(alpha1) = 1
Constructing momentum equations
smoothSolver:  Solving for e.air, Initial residual = 0.0387843, Final residual = 1.06822e-11, No Iterations 2
smoothSolver:  Solving for e.water, Initial residual = 2.67377e-05, Final residual = 2.97709e-11, No Iterations 1
GAMG:  Solving for p_rgh, Initial residual = 1.1297e-06, Final residual = 6.8337e-09, No Iterations 5
PIMPLE: iteration 3
MULES: Solving for alpha.air
MULES: Solving for alpha.air
alpha.air volume fraction = 0.293336  Min(alpha1) = -4.34283e-49  Max(alpha1) = 1
Constructing momentum equations
smoothSolver:  Solving for e.air, Initial residual = 0.0647543, Final residual = 1.24591e-11, No Iterations 2
smoothSolver:  Solving for e.water, Initial residual = 8.63062e-06, Final residual = 2.66029e-11, No Iterations 1
GAMG:  Solving for p_rgh, Initial residual = 5.56485e-07, Final residual = 8.67391e-09, No Iterations 1
ExecutionTime = 0.42 s


Courant Number mean: 2.36318e-05 max: 0.000887808
Max Ur Courant Number = 0.275803
Time = 0.04

PIMPLE: iteration 1
MULES: Solving for alpha.air
MULES: Solving for alpha.air
alpha.air volume fraction = 0.293336  Min(alpha1) = 0  Max(alpha1) = 1
Constructing momentum equations
smoothSolver:  Solving for e.air, Initial residual = 0.0246091, Final residual = 1.07955e-11, No Iterations 2
smoothSolver:  Solving for e.water, Initial residual = 5.21468e-05, Final residual = 2.76019e-11, No Iterations 1
GAMG:  Solving for p_rgh, Initial residual = 3.90507e-06, Final residual = 3.17677e-09, No Iterations 6
PIMPLE: iteration 2
MULES: Solving for alpha.air
MULES: Solving for alpha.air
alpha.air volume fraction = 0.293336  Min(alpha1) = -4.44017e-47  Max(alpha1) = 1
Constructing momentum equations
smoothSolver:  Solving for e.air, Initial residual = 0.0379038, Final residual = 1.25553e-11, No Iterations 2
smoothSolver:  Solving for e.water, Initial residual = 2.02411e-05, Final residual = 2.66849e-11, No Iterations 1
GAMG:  Solving for p_rgh, Initial residual = 8.0318e-07, Final residual = 2.81913e-09, No Iterations 5
PIMPLE: iteration 3
MULES: Solving for alpha.air
MULES: Solving for alpha.air
alpha.air volume fraction = 0.293336  Min(alpha1) = -1.7469e-76  Max(alpha1) = 1
Constructing momentum equations
smoothSolver:  Solving for e.air, Initial residual = 0.0280532, Final residual = 1.09616e-11, No Iterations 2
smoothSolver:  Solving for e.water, Initial residual = 2.70226e-06, Final residual = 2.59045e-11, No Iterations 1
GAMG:  Solving for p_rgh, Initial residual = 1.38335e-07, Final residual = 7.58817e-09, No Iterations 1
ExecutionTime = 0.45 s


Courant Number mean: 3.7891e-05 max: 0.00221888
Max Ur Courant Number = 0.118322
Time = 0.045

PIMPLE: iteration 1
MULES: Solving for alpha.air
MULES: Solving for alpha.air
alpha.air volume fraction = 0.293336  Min(alpha1) = -4.19867e-142  Max(alpha1) = 1
Constructing momentum equations
smoothSolver:  Solving for e.air, Initial residual = 0.0342283, Final residual = 1.2401e-11, No Iterations 2
smoothSolver:  Solving for e.water, Initial residual = 5.4508e-05, Final residual = 2.61376e-11, No Iterations 1
GAMG:  Solving for p_rgh, Initial residual = 5.58456e-06, Final residual = 7.58471e-09, No Iterations 3
PIMPLE: iteration 2
MULES: Solving for alpha.air
MULES: Solving for alpha.air
alpha.air volume fraction = 0.293336  Min(alpha1) = -8.39735e-142  Max(alpha1) = 1
Constructing momentum equations
smoothSolver:  Solving for e.air, Initial residual = 0.07197, Final residual = 1.24736e-11, No Iterations 2
smoothSolver:  Solving for e.water, Initial residual = 2.11419e-05, Final residual = 2.59829e-11, No Iterations 1
GAMG:  Solving for p_rgh, Initial residual = 1.76208e-06, Final residual = 2.3366e-09, No Iterations 5
PIMPLE: iteration 3
MULES: Solving for alpha.air
MULES: Solving for alpha.air
alpha.air volume fraction = 0.293336  Min(alpha1) = 0  Max(alpha1) = 1
Constructing momentum equations
smoothSolver:  Solving for e.air, Initial residual = 0.0668124, Final residual = 1.4353e-11, No Iterations 2
smoothSolver:  Solving for e.water, Initial residual = 5.62386e-06, Final residual = 2.55037e-11, No Iterations 1
GAMG:  Solving for p_rgh, Initial residual = 1.28566e-06, Final residual = 7.82326e-09, No Iterations 1
ExecutionTime = 0.48 s


Courant Number mean: 5.7691e-05 max: 0.00266903
Max Ur Courant Number = 0.260596
Time = 0.05

PIMPLE: iteration 1
MULES: Solving for alpha.air
MULES: Solving for alpha.air
alpha.air volume fraction = 0.293336  Min(alpha1) = 0  Max(alpha1) = 1
Constructing momentum equations
smoothSolver:  Solving for e.air, Initial residual = 0.0347266, Final residual = 1.12904e-11, No Iterations 2
smoothSolver:  Solving for e.water, Initial residual = 6.2598e-05, Final residual = 2.8e-11, No Iterations 1
GAMG:  Solving for p_rgh, Initial residual = 4.04374e-06, Final residual = 7.79274e-09, No Iterations 5
PIMPLE: iteration 2
MULES: Solving for alpha.air
MULES: Solving for alpha.air
alpha.air volume fraction = 0.293336  Min(alpha1) = -4.85416e-142  Max(alpha1) = 1
Constructing momentum equations
smoothSolver:  Solving for e.air, Initial residual = 0.10542, Final residual = 1.6032e-11, No Iterations 2
smoothSolver:  Solving for e.water, Initial residual = 2.22099e-05, Final residual = 2.57712e-11, No Iterations 1
GAMG:  Solving for p_rgh, Initial residual = 1.63197e-06, Final residual = 2.04274e-09, No Iterations 5
PIMPLE: iteration 3
MULES: Solving for alpha.air
MULES: Solving for alpha.air
alpha.air volume fraction = 0.293336  Min(alpha1) = -2.98317e-96  Max(alpha1) = 1
Constructing momentum equations
smoothSolver:  Solving for e.air, Initial residual = 0.0940092, Final residual = 1.48792e-11, No Iterations 2
smoothSolver:  Solving for e.water, Initial residual = 5.16915e-06, Final residual = 2.55789e-11, No Iterations 1
GAMG:  Solving for p_rgh, Initial residual = 9.12263e-07, Final residual = 7.51686e-09, No Iterations 1
ExecutionTime = 0.51 s


Courant Number mean: 6.31234e-05 max: 0.00293745
Max Ur Courant Number = 0.125139
Time = 0.055

PIMPLE: iteration 1
MULES: Solving for alpha.air
MULES: Solving for alpha.air
alpha.air volume fraction = 0.293336  Min(alpha1) = -1.64292e-157  Max(alpha1) = 1
Constructing momentum equations
smoothSolver:  Solving for e.air, Initial residual = 0.0305994, Final residual = 1.31145e-11, No Iterations 2
smoothSolver:  Solving for e.water, Initial residual = 6.62779e-05, Final residual = 2.51e-11, No Iterations 1
GAMG:  Solving for p_rgh, Initial residual = 5.4034e-06, Final residual = 3.01641e-09, No Iterations 5
PIMPLE: iteration 2
MULES: Solving for alpha.air
MULES: Solving for alpha.air
alpha.air volume fraction = 0.293336  Min(alpha1) = 0  Max(alpha1) = 1
Constructing momentum equations
smoothSolver:  Solving for e.air, Initial residual = 0.0488304, Final residual = 1.1506e-11, No Iterations 2
smoothSolver:  Solving for e.water, Initial residual = 2.28959e-05, Final residual = 2.54284e-11, No Iterations 1
GAMG:  Solving for p_rgh, Initial residual = 1.64307e-06, Final residual = 2.35019e-09, No Iterations 5
PIMPLE: iteration 3
MULES: Solving for alpha.air
MULES: Solving for alpha.air
alpha.air volume fraction = 0.293336  Min(alpha1) = 0  Max(alpha1) = 1
Constructing momentum equations
smoothSolver:  Solving for e.air, Initial residual = 0.0400242, Final residual = 1.25033e-11, No Iterations 2
smoothSolver:  Solving for e.water, Initial residual = 2.84384e-06, Final residual = 2.53064e-11, No Iterations 1
GAMG:  Solving for p_rgh, Initial residual = 1.30758e-06, Final residual = 8.47701e-09, No Iterations 1
ExecutionTime = 0.54 s


Courant Number mean: 6.1328e-05 max: 0.00287024
Max Ur Courant Number = 0.247282
Time = 0.06

PIMPLE: iteration 1
MULES: Solving for alpha.air
MULES: Solving for alpha.air
alpha.air volume fraction = 0.293336  Min(alpha1) = 0  Max(alpha1) = 1
Constructing momentum equations
smoothSolver:  Solving for e.air, Initial residual = 0.03545, Final residual = 1.20278e-11, No Iterations 2
smoothSolver:  Solving for e.water, Initial residual = 7.00729e-05, Final residual = 2.56399e-11, No Iterations 1
GAMG:  Solving for p_rgh, Initial residual = 3.7761e-06, Final residual = 8.65521e-09, No Iterations 5
PIMPLE: iteration 2
MULES: Solving for alpha.air
MULES: Solving for alpha.air
alpha.air volume fraction = 0.293336  Min(alpha1) = -2.21098e-144  Max(alpha1) = 1
Constructing momentum equations
smoothSolver:  Solving for e.air, Initial residual = 0.0971812, Final residual = 1.59264e-11, No Iterations 2
smoothSolver:  Solving for e.water, Initial residual = 2.26546e-05, Final residual = 2.57276e-11, No Iterations 1
GAMG:  Solving for p_rgh, Initial residual = 1.57847e-06, Final residual = 8.23294e-09, No Iterations 3
PIMPLE: iteration 3
MULES: Solving for alpha.air
MULES: Solving for alpha.air
alpha.air volume fraction = 0.293336  Min(alpha1) = -3.56816e-114  Max(alpha1) = 1
Constructing momentum equations
smoothSolver:  Solving for e.air, Initial residual = 0.123277, Final residual = 1.61909e-11, No Iterations 2
smoothSolver:  Solving for e.water, Initial residual = 5.7772e-06, Final residual = 2.46816e-11, No Iterations 1
GAMG:  Solving for p_rgh, Initial residual = 1.03537e-06, Final residual = 8.50467e-09, No Iterations 1
ExecutionTime = 0.56 s


Courant Number mean: 6.12289e-05 max: 0.00302275
Max Ur Courant Number = 0.131637
Time = 0.065

PIMPLE: iteration 1
MULES: Solving for alpha.air
MULES: Solving for alpha.air
alpha.air volume fraction = 0.293336  Min(alpha1) = 0  Max(alpha1) = 1
Constructing momentum equations
smoothSolver:  Solving for e.air, Initial residual = 0.0400646, Final residual = 1.47975e-11, No Iterations 2
smoothSolver:  Solving for e.water, Initial residual = 7.78971e-05, Final residual = 2.50338e-11, No Iterations 1
GAMG:  Solving for p_rgh, Initial residual = 4.60994e-06, Final residual = 9.58573e-09, No Iterations 4
PIMPLE: iteration 2
MULES: Solving for alpha.air
MULES: Solving for alpha.air
alpha.air volume fraction = 0.293336  Min(alpha1) = 0  Max(alpha1) = 1
Constructing momentum equations
smoothSolver:  Solving for e.air, Initial residual = 0.0648568, Final residual = 1.40629e-11, No Iterations 2
smoothSolver:  Solving for e.water, Initial residual = 2.43924e-05, Final residual = 2.57005e-11, No Iterations 1
GAMG:  Solving for p_rgh, Initial residual = 1.52919e-06, Final residual = 8.6313e-09, No Iterations 3
PIMPLE: iteration 3
MULES: Solving for alpha.air
MULES: Solving for alpha.air
alpha.air volume fraction = 0.293336  Min(alpha1) = 0  Max(alpha1) = 1
Constructing momentum equations
smoothSolver:  Solving for e.air, Initial residual = 0.136213, Final residual = 1.93632e-11, No Iterations 2
smoothSolver:  Solving for e.water, Initial residual = 5.33223e-06, Final residual = 2.48759e-11, No Iterations 1
GAMG:  Solving for p_rgh, Initial residual = 1.33618e-06, Final residual = 4.81776e-09, No Iterations 2
ExecutionTime = 0.6 s


Courant Number mean: 6.41902e-05 max: 0.0032382
Max Ur Courant Number = 0.235631
Time = 0.07

PIMPLE: iteration 1
MULES: Solving for alpha.air
MULES: Solving for alpha.air
alpha.air volume fraction = 0.293336  Min(alpha1) = 0  Max(alpha1) = 1
Constructing momentum equations
smoothSolver:  Solving for e.air, Initial residual = 0.0600739, Final residual = 1.41325e-11, No Iterations 2
smoothSolver:  Solving for e.water, Initial residual = 8.1279e-05, Final residual = 2.50637e-11, No Iterations 1
GAMG:  Solving for p_rgh, Initial residual = 3.6205e-06, Final residual = 8.3282e-09, No Iterations 3
PIMPLE: iteration 2
MULES: Solving for alpha.air
MULES: Solving for alpha.air
alpha.air volume fraction = 0.293336  Min(alpha1) = -1.13739e-132  Max(alpha1) = 1
Constructing momentum equations
smoothSolver:  Solving for e.air, Initial residual = 0.0744294, Final residual = 1.49808e-11, No Iterations 2
smoothSolver:  Solving for e.water, Initial residual = 2.37294e-05, Final residual = 2.51859e-11, No Iterations 1
GAMG:  Solving for p_rgh, Initial residual = 1.52596e-06, Final residual = 5.19619e-09, No Iterations 3
PIMPLE: iteration 3
MULES: Solving for alpha.air
MULES: Solving for alpha.air
alpha.air volume fraction = 0.293336  Min(alpha1) = 0  Max(alpha1) = 1
Constructing momentum equations
smoothSolver:  Solving for e.air, Initial residual = 0.0804608, Final residual = 1.5511e-11, No Iterations 2
smoothSolver:  Solving for e.water, Initial residual = 5.51326e-06, Final residual = 2.56022e-11, No Iterations 1
GAMG:  Solving for p_rgh, Initial residual = 1.15485e-06, Final residual = 7.06061e-09, No Iterations 1
ExecutionTime = 0.63 s


Courant Number mean: 7.09475e-05 max: 0.00358961
Max Ur Courant Number = 0.135839
Time = 0.075

PIMPLE: iteration 1
MULES: Solving for alpha.air
MULES: Solving for alpha.air
alpha.air volume fraction = 0.293336  Min(alpha1) = 0  Max(alpha1) = 1
Constructing momentum equations
smoothSolver:  Solving for e.air, Initial residual = 0.0374066, Final residual = 1.38307e-11, No Iterations 2
smoothSolver:  Solving for e.water, Initial residual = 8.70819e-05, Final residual = 2.58154e-11, No Iterations 1
GAMG:  Solving for p_rgh, Initial residual = 4.08202e-06, Final residual = 5.62772e-09, No Iterations 4
PIMPLE: iteration 2
MULES: Solving for alpha.air
MULES: Solving for alpha.air
alpha.air volume fraction = 0.293336  Min(alpha1) = 0  Max(alpha1) = 1
Constructing momentum equations
smoothSolver:  Solving for e.air, Initial residual = 0.0547608, Final residual = 1.49573e-11, No Iterations 2
smoothSolver:  Solving for e.water, Initial residual = 2.55597e-05, Final residual = 2.48405e-11, No Iterations 1
GAMG:  Solving for p_rgh, Initial residual = 1.47195e-06, Final residual = 6.17761e-09, No Iterations 3
PIMPLE: iteration 3
MULES: Solving for alpha.air
MULES: Solving for alpha.air
alpha.air volume fraction = 0.293336  Min(alpha1) = 0  Max(alpha1) = 1
Constructing momentum equations
smoothSolver:  Solving for e.air, Initial residual = 0.0922147, Final residual = 1.63068e-11, No Iterations 2
smoothSolver:  Solving for e.water, Initial residual = 3.88908e-06, Final residual = 2.44832e-11, No Iterations 1
GAMG:  Solving for p_rgh, Initial residual = 9.11736e-07, Final residual = 8.13662e-09, No Iterations 1
ExecutionTime = 0.66 s


Courant Number mean: 7.66709e-05 max: 0.00396612
Max Ur Courant Number = 0.225275
Time = 0.08

PIMPLE: iteration 1
MULES: Solving for alpha.air
MULES: Solving for alpha.air
alpha.air volume fraction = 0.293336  Min(alpha1) = 0  Max(alpha1) = 1
Constructing momentum equations
smoothSolver:  Solving for e.air, Initial residual = 0.0331245, Final residual = 1.51109e-11, No Iterations 2
smoothSolver:  Solving for e.water, Initial residual = 9.20705e-05, Final residual = 2.51546e-11, No Iterations 1
GAMG:  Solving for p_rgh, Initial residual = 3.00786e-06, Final residual = 8.42123e-09, No Iterations 5
PIMPLE: iteration 2
MULES: Solving for alpha.air
MULES: Solving for alpha.air
alpha.air volume fraction = 0.293336  Min(alpha1) = 0  Max(alpha1) = 1
Constructing momentum equations
smoothSolver:  Solving for e.air, Initial residual = 0.0894008, Final residual = 1.59932e-11, No Iterations 2
smoothSolver:  Solving for e.water, Initial residual = 2.5819e-05, Final residual = 2.49341e-11, No Iterations 1
GAMG:  Solving for p_rgh, Initial residual = 1.05876e-06, Final residual = 5.50978e-09, No Iterations 3
PIMPLE: iteration 3
MULES: Solving for alpha.air
MULES: Solving for alpha.air
alpha.air volume fraction = 0.293336  Min(alpha1) = 0  Max(alpha1) = 1
Constructing momentum equations
smoothSolver:  Solving for e.air, Initial residual = 0.0928642, Final residual = 1.63438e-11, No Iterations 2
smoothSolver:  Solving for e.water, Initial residual = 4.64392e-06, Final residual = 2.48853e-11, No Iterations 1
GAMG:  Solving for p_rgh, Initial residual = 7.26016e-07, Final residual = 6.18957e-09, No Iterations 1
ExecutionTime = 0.69 s


Courant Number mean: 8.23209e-05 max: 0.0044194
Max Ur Courant Number = 0.139276
Time = 0.085

PIMPLE: iteration 1
MULES: Solving for alpha.air
MULES: Solving for alpha.air
alpha.air volume fraction = 0.293336  Min(alpha1) = 0  Max(alpha1) = 1
Constructing momentum equations
smoothSolver:  Solving for e.air, Initial residual = 0.0346672, Final residual = 1.30628e-11, No Iterations 2
smoothSolver:  Solving for e.water, Initial residual = 9.45955e-05, Final residual = 2.34885e-11, No Iterations 1
GAMG:  Solving for p_rgh, Initial residual = 3.23892e-06, Final residual = 7.23421e-09, No Iterations 4
PIMPLE: iteration 2
MULES: Solving for alpha.air
MULES: Solving for alpha.air
alpha.air volume fraction = 0.293336  Min(alpha1) = 0  Max(alpha1) = 1
Constructing momentum equations
smoothSolver:  Solving for e.air, Initial residual = 0.0508223, Final residual = 1.45035e-11, No Iterations 2
smoothSolver:  Solving for e.water, Initial residual = 2.7002e-05, Final residual = 2.59371e-11, No Iterations 1
GAMG:  Solving for p_rgh, Initial residual = 9.11476e-07, Final residual = 9.80501e-09, No Iterations 1
PIMPLE: iteration 3
MULES: Solving for alpha.air
MULES: Solving for alpha.air
alpha.air volume fraction = 0.293336  Min(alpha1) = 0  Max(alpha1) = 1
Constructing momentum equations
smoothSolver:  Solving for e.air, Initial residual = 0.0855945, Final residual = 1.8154e-11, No Iterations 2
smoothSolver:  Solving for e.water, Initial residual = 7.05286e-06, Final residual = 2.49037e-11, No Iterations 1
GAMG:  Solving for p_rgh, Initial residual = 7.68067e-07, Final residual = 7.63317e-09, No Iterations 1
ExecutionTime = 0.72 s


Courant Number mean: 8.83003e-05 max: 0.00487789
Max Ur Courant Number = 0.216026
Time = 0.09

PIMPLE: iteration 1
MULES: Solving for alpha.air
MULES: Solving for alpha.air
alpha.air volume fraction = 0.293336  Min(alpha1) = 0  Max(alpha1) = 1
Constructing momentum equations
smoothSolver:  Solving for e.air, Initial residual = 0.0349306, Final residual = 1.21256e-11, No Iterations 2
smoothSolver:  Solving for e.water, Initial residual = 9.76368e-05, Final residual = 2.55937e-11, No Iterations 1
GAMG:  Solving for p_rgh, Initial residual = 2.75209e-06, Final residual = 8.74274e-09, No Iterations 4
PIMPLE: iteration 2
MULES: Solving for alpha.air
MULES: Solving for alpha.air
alpha.air volume fraction = 0.293336  Min(alpha1) = -8.52869e-281  Max(alpha1) = 1
Constructing momentum equations
smoothSolver:  Solving for e.air, Initial residual = 0.101448, Final residual = 1.54387e-11, No Iterations 2
smoothSolver:  Solving for e.water, Initial residual = 2.40911e-05, Final residual = 2.43283e-11, No Iterations 1
GAMG:  Solving for p_rgh, Initial residual = 9.38607e-07, Final residual = 9.86536e-09, No Iterations 1
PIMPLE: iteration 3
MULES: Solving for alpha.air
MULES: Solving for alpha.air
alpha.air volume fraction = 0.293336  Min(alpha1) = 0  Max(alpha1) = 1
Constructing momentum equations
smoothSolver:  Solving for e.air, Initial residual = 0.0759384, Final residual = 1.35486e-11, No Iterations 2
smoothSolver:  Solving for e.water, Initial residual = 8.10921e-06, Final residual = 2.36781e-11, No Iterations 1
GAMG:  Solving for p_rgh, Initial residual = 6.60873e-07, Final residual = 6.33725e-09, No Iterations 1
ExecutionTime = 0.76 s


Courant Number mean: 9.55386e-05 max: 0.00538829
Max Ur Courant Number = 0.141669
Time = 0.095

PIMPLE: iteration 1
MULES: Solving for alpha.air
MULES: Solving for alpha.air
alpha.air volume fraction = 0.293336  Min(alpha1) = 0  Max(alpha1) = 1
Constructing momentum equations
smoothSolver:  Solving for e.air, Initial residual = 0.0365795, Final residual = 1.27514e-11, No Iterations 2
smoothSolver:  Solving for e.water, Initial residual = 9.96653e-05, Final residual = 2.51558e-11, No Iterations 1
GAMG:  Solving for p_rgh, Initial residual = 2.88557e-06, Final residual = 2.49973e-09, No Iterations 5
PIMPLE: iteration 2
MULES: Solving for alpha.air
MULES: Solving for alpha.air
alpha.air volume fraction = 0.293336  Min(alpha1) = 0  Max(alpha1) = 1
Constructing momentum equations
smoothSolver:  Solving for e.air, Initial residual = 0.0444978, Final residual = 1.27451e-11, No Iterations 2
smoothSolver:  Solving for e.water, Initial residual = 2.46877e-05, Final residual = 2.37148e-11, No Iterations 1
GAMG:  Solving for p_rgh, Initial residual = 8.36674e-07, Final residual = 7.0492e-09, No Iterations 1
PIMPLE: iteration 3
MULES: Solving for alpha.air
MULES: Solving for alpha.air
alpha.air volume fraction = 0.293336  Min(alpha1) = -4.56199e-244  Max(alpha1) = 1
Constructing momentum equations
smoothSolver:  Solving for e.air, Initial residual = 0.0501472, Final residual = 1.31722e-11, No Iterations 2
smoothSolver:  Solving for e.water, Initial residual = 6.11045e-06, Final residual = 2.3558e-11, No Iterations 1
GAMG:  Solving for p_rgh, Initial residual = 7.45724e-07, Final residual = 5.13084e-09, No Iterations 1
ExecutionTime = 0.78 s


Courant Number mean: 0.000103074 max: 0.00587766
Max Ur Courant Number = 0.207784
Time = 0.1

PIMPLE: iteration 1
MULES: Solving for alpha.air
MULES: Solving for alpha.air
alpha.air volume fraction = 0.293336  Min(alpha1) = 0  Max(alpha1) = 1
Constructing momentum equations
smoothSolver:  Solving for e.air, Initial residual = 0.994352, Final residual = 9.74997e-10, No Iterations 1
smoothSolver:  Solving for e.water, Initial residual = 0.000101075, Final residual = 2.44902e-11, No Iterations 1
GAMG:  Solving for p_rgh, Initial residual = 1.57474e-05, Final residual = 3.72859e-09, No Iterations 13
PIMPLE: iteration 2
MULES: Solving for alpha.air
MULES: Solving for alpha.air
alpha.air volume fraction = 0.293107  Min(alpha1) = -1.27388e-180  Max(alpha1) = 1
Constructing momentum equations
smoothSolver:  Solving for e.air, Initial residual = 0.982077, Final residual = 2.63488e-12, No Iterations 2
smoothSolver:  Solving for e.water, Initial residual = 0.82673, Final residual = 1.77974e-09, No Iterations 4
GAMG:  Solving for p_rgh, Initial residual = 5.48324e-05, Final residual = 3.19572e-09, No Iterations 13
PIMPLE: iteration 3
MULES: Solving for alpha.air
MULES: Solving for alpha.air
alpha.air volume fraction = 0.293388  Min(alpha1) = -3.12378e-256  Max(alpha1) = 1
Constructing momentum equations
smoothSolver:  Solving for e.air, Initial residual = 0.804821, Final residual = 8.08248e-12, No Iterations 2
smoothSolver:  Solving for e.water, Initial residual = 0.47978, Final residual = 1.64598e-09, No Iterations 4
GAMG:  Solving for p_rgh, Initial residual = 6.86627e-05, Final residual = 3.24092e-09, No Iterations 8
ExecutionTime = 0.83 s


Courant Number mean: 0.0192562 max: 0.585778
Max Ur Courant Number = 1.27817
Time = 0.105

PIMPLE: iteration 1
MULES: Solving for alpha.air
MULES: Solving for alpha.air
alpha.air volume fraction = 0.293338  Min(alpha1) = 0  Max(alpha1) = 1
Constructing momentum equations
smoothSolver:  Solving for e.air, Initial residual = 0.136792, Final residual = 7.86352e-12, No Iterations 2
smoothSolver:  Solving for e.water, Initial residual = 0.00845287, Final residual = 5.27483e-10, No Iterations 5
GAMG:  Solving for p_rgh, Initial residual = 4.82059e-05, Final residual = 9.91388e-09, No Iterations 9
PIMPLE: iteration 2
MULES: Solving for alpha.air
MULES: Solving for alpha.air
alpha.air volume fraction = 0.293389  Min(alpha1) = 0  Max(alpha1) = 1
Constructing momentum equations
smoothSolver:  Solving for e.air, Initial residual = 0.526333, Final residual = 1.4945e-11, No Iterations 2
smoothSolver:  Solving for e.water, Initial residual = 0.0381175, Final residual = 4.73363e-09, No Iterations 6
GAMG:  Solving for p_rgh, Initial residual = 2.15831e-05, Final residual = 3.66793e-09, No Iterations 8
PIMPLE: iteration 3
MULES: Solving for alpha.air
MULES: Solving for alpha.air
alpha.air volume fraction = 0.29339  Min(alpha1) = -4.23516e-24  Max(alpha1) = 1
Constructing momentum equations
smoothSolver:  Solving for e.air, Initial residual = 0.127092, Final residual = 1.98456e-11, No Iterations 2
smoothSolver:  Solving for e.water, Initial residual = 0.0231694, Final residual = 3.77398e-09, No Iterations 5
GAMG:  Solving for p_rgh, Initial residual = 1.40031e-05, Final residual = 4.97431e-09, No Iterations 9
ExecutionTime = 0.86 s


Courant Number mean: 0.0216732 max: 0.649822
Max Ur Courant Number = 0.622596
Time = 0.11

PIMPLE: iteration 1
MULES: Solving for alpha.air
MULES: Solving for alpha.air
alpha.air volume fraction = 0.29334  Min(alpha1) = 0  Max(alpha1) = 1
Constructing momentum equations
smoothSolver:  Solving for e.air, Initial residual = 0.125407, Final residual = 8.04428e-12, No Iterations 2
smoothSolver:  Solving for e.water, Initial residual = 0.0939748, Final residual = 1.93917e-09, No Iterations 7
GAMG:  Solving for p_rgh, Initial residual = 3.55089e-05, Final residual = 8.2356e-09, No Iterations 9
PIMPLE: iteration 2
MULES: Solving for alpha.air
MULES: Solving for alpha.air
alpha.air volume fraction = 0.293398  Min(alpha1) = -4.11536e-134  Max(alpha1) = 1
Constructing momentum equations
smoothSolver:  Solving for e.air, Initial residual = 0.25454, Final residual = 2.04747e-11, No Iterations 2
smoothSolver:  Solving for e.water, Initial residual = 0.0182865, Final residual = 1.56045e-09, No Iterations 6
GAMG:  Solving for p_rgh, Initial residual = 8.30157e-06, Final residual = 8.27837e-09, No Iterations 4
PIMPLE: iteration 3
MULES: Solving for alpha.air
MULES: Solving for alpha.air
alpha.air volume fraction = 0.293388  Min(alpha1) = -9.02781e-37  Max(alpha1) = 1
Constructing momentum equations
smoothSolver:  Solving for e.air, Initial residual = 0.113133, Final residual = 6.20588e-12, No Iterations 2
smoothSolver:  Solving for e.water, Initial residual = 0.0413394, Final residual = 1.46334e-09, No Iterations 6
GAMG:  Solving for p_rgh, Initial residual = 5.07726e-06, Final residual = 3.31385e-09, No Iterations 7
ExecutionTime = 0.91 s


Courant Number mean: 0.0213116 max: 0.624497
Max Ur Courant Number = 0.331869
Time = 0.115

PIMPLE: iteration 1
MULES: Solving for alpha.air
MULES: Solving for alpha.air
alpha.air volume fraction = 0.293361  Min(alpha1) = 0  Max(alpha1) = 1
Constructing momentum equations
smoothSolver:  Solving for e.air, Initial residual = 0.332238, Final residual = 5.80058e-13, No Iterations 2
smoothSolver:  Solving for e.water, Initial residual = 0.0435512, Final residual = 9.61913e-10, No Iterations 7
GAMG:  Solving for p_rgh, Initial residual = 3.04014e-05, Final residual = 6.53025e-09, No Iterations 6
PIMPLE: iteration 2
MULES: Solving for alpha.air
MULES: Solving for alpha.air
alpha.air volume fraction = 0.293388  Min(alpha1) = 0  Max(alpha1) = 1
Constructing momentum equations
smoothSolver:  Solving for e.air, Initial residual = 0.0609246, Final residual = 4.7755e-12, No Iterations 2
smoothSolver:  Solving for e.water, Initial residual = 0.0329394, Final residual = 2.60112e-09, No Iterations 5
GAMG:  Solving for p_rgh, Initial residual = 5.91384e-06, Final residual = 4.76033e-09, No Iterations 4
PIMPLE: iteration 3
MULES: Solving for alpha.air
MULES: Solving for alpha.air
alpha.air volume fraction = 0.293392  Min(alpha1) = 0  Max(alpha1) = 1
Constructing momentum equations
smoothSolver:  Solving for e.air, Initial residual = 0.0157131, Final residual = 5.18125e-12, No Iterations 2
smoothSolver:  Solving for e.water, Initial residual = 0.00433502, Final residual = 8.8899e-10, No Iterations 5
GAMG:  Solving for p_rgh, Initial residual = 1.46234e-05, Final residual = 4.08151e-09, No Iterations 5
ExecutionTime = 0.94 s


Courant Number mean: 0.0207989 max: 0.544361
Max Ur Courant Number = 0.253434
Time = 0.12

PIMPLE: iteration 1
MULES: Solving for alpha.air
MULES: Solving for alpha.air
alpha.air volume fraction = 0.293378  Min(alpha1) = -7.77989e-55  Max(alpha1) = 1
Constructing momentum equations
smoothSolver:  Solving for e.air, Initial residual = 0.0927351, Final residual = 6.42722e-13, No Iterations 2
smoothSolver:  Solving for e.water, Initial residual = 0.0379035, Final residual = 6.75929e-10, No Iterations 6
GAMG:  Solving for p_rgh, Initial residual = 2.1849e-05, Final residual = 9.40023e-09, No Iterations 7
PIMPLE: iteration 2
MULES: Solving for alpha.air
MULES: Solving for alpha.air
alpha.air volume fraction = 0.293395  Min(alpha1) = 0  Max(alpha1) = 1
Constructing momentum equations
smoothSolver:  Solving for e.air, Initial residual = 0.076878, Final residual = 1.15589e-11, No Iterations 2
smoothSolver:  Solving for e.water, Initial residual = 0.01627, Final residual = 7.94825e-10, No Iterations 5
GAMG:  Solving for p_rgh, Initial residual = 7.4985e-06, Final residual = 8.57589e-09, No Iterations 4
PIMPLE: iteration 3
MULES: Solving for alpha.air
MULES: Solving for alpha.air
alpha.air volume fraction = 0.293394  Min(alpha1) = 0  Max(alpha1) = 1
Constructing momentum equations
smoothSolver:  Solving for e.air, Initial residual = 0.0318562, Final residual = 1.38513e-12, No Iterations 2
smoothSolver:  Solving for e.water, Initial residual = 0.00563672, Final residual = 7.56468e-09, No Iterations 4
GAMG:  Solving for p_rgh, Initial residual = 4.07969e-06, Final residual = 4.06048e-09, No Iterations 5
ExecutionTime = 0.97 s


Courant Number mean: 0.0207753 max: 0.483416
Max Ur Courant Number = 0.216876
Time = 0.125

PIMPLE: iteration 1
MULES: Solving for alpha.air
MULES: Solving for alpha.air
alpha.air volume fraction = 0.29339  Min(alpha1) = 0  Max(alpha1) = 1
Constructing momentum equations
smoothSolver:  Solving for e.air, Initial residual = 0.0126846, Final residual = 3.23521e-13, No Iterations 2
smoothSolver:  Solving for e.water, Initial residual = 0.0247799, Final residual = 2.33448e-09, No Iterations 5
GAMG:  Solving for p_rgh, Initial residual = 1.35622e-05, Final residual = 3.47852e-09, No Iterations 6
PIMPLE: iteration 2
MULES: Solving for alpha.air
MULES: Solving for alpha.air
alpha.air volume fraction = 0.293394  Min(alpha1) = 0  Max(alpha1) = 1
Constructing momentum equations
smoothSolver:  Solving for e.air, Initial residual = 0.0468761, Final residual = 8.48127e-13, No Iterations 2
smoothSolver:  Solving for e.water, Initial residual = 0.00480854, Final residual = 3.98073e-09, No Iterations 4
GAMG:  Solving for p_rgh, Initial residual = 4.06541e-06, Final residual = 2.86256e-09, No Iterations 5
PIMPLE: iteration 3
MULES: Solving for alpha.air
MULES: Solving for alpha.air
alpha.air volume fraction = 0.293395  Min(alpha1) = 0  Max(alpha1) = 1
Constructing momentum equations
smoothSolver:  Solving for e.air, Initial residual = 0.0098205, Final residual = 5.38708e-13, No Iterations 2
smoothSolver:  Solving for e.water, Initial residual = 0.00333301, Final residual = 5.18984e-10, No Iterations 4
GAMG:  Solving for p_rgh, Initial residual = 2.82889e-06, Final residual = 4.31656e-09, No Iterations 5
ExecutionTime = 1.01 s


Courant Number mean: 0.0208556 max: 0.414572
Max Ur Courant Number = 0.221057
Time = 0.13

PIMPLE: iteration 1
MULES: Solving for alpha.air
MULES: Solving for alpha.air
alpha.air volume fraction = 0.293394  Min(alpha1) = 0  Max(alpha1) = 1
Constructing momentum equations
smoothSolver:  Solving for e.air, Initial residual = 0.00947176, Final residual = 2.84013e-13, No Iterations 2
smoothSolver:  Solving for e.water, Initial residual = 0.0207599, Final residual = 1.92714e-09, No Iterations 5
GAMG:  Solving for p_rgh, Initial residual = 2.36275e-05, Final residual = 9.42559e-09, No Iterations 5
PIMPLE: iteration 2
MULES: Solving for alpha.air
MULES: Solving for alpha.air
alpha.air volume fraction = 0.293395  Min(alpha1) = 0  Max(alpha1) = 1
Constructing momentum equations
smoothSolver:  Solving for e.air, Initial residual = 0.0290433, Final residual = 3.65172e-13, No Iterations 2
smoothSolver:  Solving for e.water, Initial residual = 0.0064278, Final residual = 7.69673e-10, No Iterations 4
GAMG:  Solving for p_rgh, Initial residual = 6.71786e-06, Final residual = 9.01601e-09, No Iterations 4
PIMPLE: iteration 3
MULES: Solving for alpha.air
MULES: Solving for alpha.air
alpha.air volume fraction = 0.293395  Min(alpha1) = -4.92114e-45  Max(alpha1) = 1
Constructing momentum equations
smoothSolver:  Solving for e.air, Initial residual = 0.0178329, Final residual = 3.8762e-13, No Iterations 2
smoothSolver:  Solving for e.water, Initial residual = 0.00245503, Final residual = 1.86758e-09, No Iterations 4
GAMG:  Solving for p_rgh, Initial residual = 3.53214e-06, Final residual = 5.17914e-09, No Iterations 5
ExecutionTime = 1.04 s


Courant Number mean: 0.0209225 max: 0.374459
Max Ur Courant Number = 0.233291
Time = 0.135

PIMPLE: iteration 1
MULES: Solving for alpha.air
MULES: Solving for alpha.air
alpha.air volume fraction = 0.293395  Min(alpha1) = 0  Max(alpha1) = 1
Constructing momentum equations
smoothSolver:  Solving for e.air, Initial residual = 0.00258539, Final residual = 6.25609e-09, No Iterations 1
smoothSolver:  Solving for e.water, Initial residual = 0.0176327, Final residual = 9.12147e-09, No Iterations 4
GAMG:  Solving for p_rgh, Initial residual = 1.20419e-05, Final residual = 4.48817e-09, No Iterations 4
PIMPLE: iteration 2
MULES: Solving for alpha.air
MULES: Solving for alpha.air
alpha.air volume fraction = 0.293394  Min(alpha1) = 0  Max(alpha1) = 1
Constructing momentum equations
smoothSolver:  Solving for e.air, Initial residual = 0.0451803, Final residual = 3.85263e-13, No Iterations 2
smoothSolver:  Solving for e.water, Initial residual = 0.00904797, Final residual = 6.71064e-10, No Iterations 4
GAMG:  Solving for p_rgh, Initial residual = 4.11104e-06, Final residual = 7.36165e-09, No Iterations 3
PIMPLE: iteration 3
MULES: Solving for alpha.air
MULES: Solving for alpha.air
alpha.air volume fraction = 0.293394  Min(alpha1) = -1.10355e-42  Max(alpha1) = 1
Constructing momentum equations
smoothSolver:  Solving for e.air, Initial residual = 0.0118734, Final residual = 5.3998e-13, No Iterations 2
smoothSolver:  Solving for e.water, Initial residual = 0.00220841, Final residual = 9.89533e-09, No Iterations 3
GAMG:  Solving for p_rgh, Initial residual = 1.09699e-05, Final residual = 9.19115e-09, No Iterations 5
ExecutionTime = 1.07 s


Courant Number mean: 0.0208736 max: 0.312167
Max Ur Courant Number = 0.289002
Time = 0.14

PIMPLE: iteration 1
MULES: Solving for alpha.air
MULES: Solving for alpha.air
alpha.air volume fraction = 0.293393  Min(alpha1) = 0  Max(alpha1) = 1
Constructing momentum equations
smoothSolver:  Solving for e.air, Initial residual = 0.0141822, Final residual = 6.61924e-13, No Iterations 2
smoothSolver:  Solving for e.water, Initial residual = 0.0181495, Final residual = 8.66924e-10, No Iterations 4
GAMG:  Solving for p_rgh, Initial residual = 1.80531e-05, Final residual = 6.08962e-09, No Iterations 6
PIMPLE: iteration 2
MULES: Solving for alpha.air
MULES: Solving for alpha.air
alpha.air volume fraction = 0.293396  Min(alpha1) = -8.37188e-79  Max(alpha1) = 1
Constructing momentum equations
smoothSolver:  Solving for e.air, Initial residual = 0.0485236, Final residual = 3.37759e-13, No Iterations 2
smoothSolver:  Solving for e.water, Initial residual = 0.010418, Final residual = 6.57174e-10, No Iterations 4
GAMG:  Solving for p_rgh, Initial residual = 7.86137e-06, Final residual = 9.30922e-09, No Iterations 5
PIMPLE: iteration 3
MULES: Solving for alpha.air
MULES: Solving for alpha.air
alpha.air volume fraction = 0.293392  Min(alpha1) = 7.75706e-164  Max(alpha1) = 1
Constructing momentum equations
smoothSolver:  Solving for e.air, Initial residual = 0.0325187, Final residual = 4.33281e-13, No Iterations 2
smoothSolver:  Solving for e.water, Initial residual = 0.00328425, Final residual = 3.46067e-10, No Iterations 4
GAMG:  Solving for p_rgh, Initial residual = 1.35163e-05, Final residual = 4.69571e-09, No Iterations 6
ExecutionTime = 1.11 s


Courant Number mean: 0.0208725 max: 0.262703
Max Ur Courant Number = 0.359136
Time = 0.145

PIMPLE: iteration 1
MULES: Solving for alpha.air
MULES: Solving for alpha.air
alpha.air volume fraction = 0.293391  Min(alpha1) = 6.48253e-158  Max(alpha1) = 1
Constructing momentum equations
smoothSolver:  Solving for e.air, Initial residual = 0.034243, Final residual = 2.32859e-13, No Iterations 2
smoothSolver:  Solving for e.water, Initial residual = 0.0237388, Final residual = 5.55038e-10, No Iterations 4
GAMG:  Solving for p_rgh, Initial residual = 1.08849e-05, Final residual = 4.02635e-09, No Iterations 6
PIMPLE: iteration 2
MULES: Solving for alpha.air
MULES: Solving for alpha.air
alpha.air volume fraction = 0.293394  Min(alpha1) = 3.15402e-152  Max(alpha1) = 1
Constructing momentum equations
smoothSolver:  Solving for e.air, Initial residual = 0.0158779, Final residual = 2.59742e-13, No Iterations 2
smoothSolver:  Solving for e.water, Initial residual = 0.00915809, Final residual = 6.55367e-09, No Iterations 3
GAMG:  Solving for p_rgh, Initial residual = 3.03394e-06, Final residual = 7.39409e-09, No Iterations 5
PIMPLE: iteration 3
MULES: Solving for alpha.air
MULES: Solving for alpha.air
alpha.air volume fraction = 0.293388  Min(alpha1) = 2.44922e-148  Max(alpha1) = 1
Constructing momentum equations
smoothSolver:  Solving for e.air, Initial residual = 0.00377818, Final residual = 1.90233e-13, No Iterations 2
smoothSolver:  Solving for e.water, Initial residual = 0.00605351, Final residual = 1.82312e-09, No Iterations 3
GAMG:  Solving for p_rgh, Initial residual = 4.65726e-06, Final residual = 9.49239e-09, No Iterations 5
ExecutionTime = 1.14 s


Courant Number mean: 0.020945 max: 0.305805
Max Ur Courant Number = 0.368861
Time = 0.15

PIMPLE: iteration 1
MULES: Solving for alpha.air
MULES: Solving for alpha.air
alpha.air volume fraction = 0.293389  Min(alpha1) = 7.80976e-143  Max(alpha1) = 1
Constructing momentum equations
smoothSolver:  Solving for e.air, Initial residual = 0.0133707, Final residual = 2.29892e-13, No Iterations 2
smoothSolver:  Solving for e.water, Initial residual = 0.0202155, Final residual = 2.90082e-10, No Iterations 4
GAMG:  Solving for p_rgh, Initial residual = 1.31793e-05, Final residual = 5.97369e-09, No Iterations 6
PIMPLE: iteration 2
MULES: Solving for alpha.air
MULES: Solving for alpha.air
alpha.air volume fraction = 0.293385  Min(alpha1) = 1.8647e-135  Max(alpha1) = 1
Constructing momentum equations
smoothSolver:  Solving for e.air, Initial residual = 0.0271692, Final residual = 2.45805e-13, No Iterations 2
smoothSolver:  Solving for e.water, Initial residual = 0.00892996, Final residual = 1.09563e-10, No Iterations 3
GAMG:  Solving for p_rgh, Initial residual = 7.67647e-06, Final residual = 4.86347e-09, No Iterations 4
PIMPLE: iteration 3
MULES: Solving for alpha.air
MULES: Solving for alpha.air
alpha.air volume fraction = 0.293388  Min(alpha1) = 3.38139e-127  Max(alpha1) = 1
Constructing momentum equations
smoothSolver:  Solving for e.air, Initial residual = 0.00800802, Final residual = 2.82158e-13, No Iterations 2
smoothSolver:  Solving for e.water, Initial residual = 0.00128344, Final residual = 9.85596e-09, No Iterations 2
GAMG:  Solving for p_rgh, Initial residual = 2.92131e-06, Final residual = 5.00627e-09, No Iterations 4
ExecutionTime = 1.18 s


Courant Number mean: 0.0210726 max: 0.326722
Max Ur Courant Number = 0.349903
Time = 0.155

PIMPLE: iteration 1
MULES: Solving for alpha.air
MULES: Solving for alpha.air
alpha.air volume fraction = 0.293387  Min(alpha1) = 7.11766e-122  Max(alpha1) = 1
Constructing momentum equations
smoothSolver:  Solving for e.air, Initial residual = 0.00662769, Final residual = 2.75985e-13, No Iterations 2
smoothSolver:  Solving for e.water, Initial residual = 0.0211268, Final residual = 5.98528e-09, No Iterations 3
GAMG:  Solving for p_rgh, Initial residual = 3.44107e-05, Final residual = 3.15725e-09, No Iterations 5
PIMPLE: iteration 2
MULES: Solving for alpha.air
MULES: Solving for alpha.air
alpha.air volume fraction = 0.293385  Min(alpha1) = 1.71767e-119  Max(alpha1) = 1
Constructing momentum equations
smoothSolver:  Solving for e.air, Initial residual = 0.042053, Final residual = 1.32054e-11, No Iterations 2
smoothSolver:  Solving for e.water, Initial residual = 0.00386681, Final residual = 4.33614e-11, No Iterations 3
GAMG:  Solving for p_rgh, Initial residual = 2.85424e-06, Final residual = 5.09516e-09, No Iterations 5
PIMPLE: iteration 3
MULES: Solving for alpha.air
MULES: Solving for alpha.air
alpha.air volume fraction = 0.293389  Min(alpha1) = 1.03571e-118  Max(alpha1) = 1
Constructing momentum equations
smoothSolver:  Solving for e.air, Initial residual = 0.0194269, Final residual = 4.90455e-13, No Iterations 2
smoothSolver:  Solving for e.water, Initial residual = 0.00229632, Final residual = 2.41385e-09, No Iterations 2
GAMG:  Solving for p_rgh, Initial residual = 1.76752e-06, Final residual = 6.0115e-09, No Iterations 4
ExecutionTime = 1.21 s


Courant Number mean: 0.0211553 max: 0.328457
Max Ur Courant Number = 0.327757
Time = 0.16

PIMPLE: iteration 1
MULES: Solving for alpha.air
MULES: Solving for alpha.air
alpha.air volume fraction = 0.293387  Min(alpha1) = 5.75347e-117  Max(alpha1) = 1
Constructing momentum equations
smoothSolver:  Solving for e.air, Initial residual = 0.0241363, Final residual = 2.08455e-13, No Iterations 2
smoothSolver:  Solving for e.water, Initial residual = 0.0216222, Final residual = 4.16194e-10, No Iterations 3
GAMG:  Solving for p_rgh, Initial residual = 1.38979e-05, Final residual = 6.22221e-09, No Iterations 5
PIMPLE: iteration 2
MULES: Solving for alpha.air
MULES: Solving for alpha.air
alpha.air volume fraction = 0.293388  Min(alpha1) = 1.35498e-110  Max(alpha1) = 1
Constructing momentum equations
smoothSolver:  Solving for e.air, Initial residual = 0.0175221, Final residual = 3.68201e-13, No Iterations 2
smoothSolver:  Solving for e.water, Initial residual = 0.00342607, Final residual = 6.26808e-11, No Iterations 3
GAMG:  Solving for p_rgh, Initial residual = 3.32508e-06, Final residual = 7.51505e-09, No Iterations 4
PIMPLE: iteration 3
MULES: Solving for alpha.air
MULES: Solving for alpha.air
alpha.air volume fraction = 0.29339  Min(alpha1) = 1.27689e-104  Max(alpha1) = 1
Constructing momentum equations
smoothSolver:  Solving for e.air, Initial residual = 0.00634482, Final residual = 4.42261e-13, No Iterations 2
smoothSolver:  Solving for e.water, Initial residual = 0.000838263, Final residual = 3.85045e-09, No Iterations 2
GAMG:  Solving for p_rgh, Initial residual = 1.27807e-06, Final residual = 3.77513e-09, No Iterations 3
ExecutionTime = 1.24 s


Courant Number mean: 0.0212869 max: 0.345172
Max Ur Courant Number = 0.32767
Time = 0.165

PIMPLE: iteration 1
MULES: Solving for alpha.air
MULES: Solving for alpha.air
alpha.air volume fraction = 0.293387  Min(alpha1) = 6.66323e-103  Max(alpha1) = 1
Constructing momentum equations
smoothSolver:  Solving for e.air, Initial residual = 0.0159475, Final residual = 3.0091e-13, No Iterations 2
smoothSolver:  Solving for e.water, Initial residual = 0.0208435, Final residual = 1.69582e-10, No Iterations 3
GAMG:  Solving for p_rgh, Initial residual = 8.89597e-06, Final residual = 2.60173e-09, No Iterations 5
PIMPLE: iteration 2
MULES: Solving for alpha.air
MULES: Solving for alpha.air
alpha.air volume fraction = 0.293389  Min(alpha1) = 1.61524e-99  Max(alpha1) = 1
Constructing momentum equations
smoothSolver:  Solving for e.air, Initial residual = 0.0142406, Final residual = 2.11244e-13, No Iterations 2
smoothSolver:  Solving for e.water, Initial residual = 0.00227986, Final residual = 4.11405e-09, No Iterations 2
GAMG:  Solving for p_rgh, Initial residual = 2.16635e-06, Final residual = 6.00844e-09, No Iterations 4
PIMPLE: iteration 3
MULES: Solving for alpha.air
MULES: Solving for alpha.air
alpha.air volume fraction = 0.29339  Min(alpha1) = 1.86041e-99  Max(alpha1) = 1
Constructing momentum equations
smoothSolver:  Solving for e.air, Initial residual = 0.00635554, Final residual = 2.08424e-13, No Iterations 2
smoothSolver:  Solving for e.water, Initial residual = 0.00100956, Final residual = 2.05395e-09, No Iterations 2
GAMG:  Solving for p_rgh, Initial residual = 1.00103e-06, Final residual = 6.20602e-09, No Iterations 3
ExecutionTime = 1.28 s


Courant Number mean: 0.0214388 max: 0.362173
Max Ur Courant Number = 0.332751
Time = 0.17

PIMPLE: iteration 1
MULES: Solving for alpha.air
MULES: Solving for alpha.air
alpha.air volume fraction = 0.293388  Min(alpha1) = 1.91454e-97  Max(alpha1) = 1
Constructing momentum equations
smoothSolver:  Solving for e.air, Initial residual = 0.0123418, Final residual = 3.43771e-13, No Iterations 2
smoothSolver:  Solving for e.water, Initial residual = 0.0188404, Final residual = 1.21913e-10, No Iterations 3
GAMG:  Solving for p_rgh, Initial residual = 1.03321e-05, Final residual = 4.56103e-09, No Iterations 5
PIMPLE: iteration 2
MULES: Solving for alpha.air
MULES: Solving for alpha.air
alpha.air volume fraction = 0.29339  Min(alpha1) = 2.05831e-97  Max(alpha1) = 1
Constructing momentum equations
smoothSolver:  Solving for e.air, Initial residual = 0.0189078, Final residual = 1.26459e-12, No Iterations 2
smoothSolver:  Solving for e.water, Initial residual = 0.00207493, Final residual = 7.71358e-09, No Iterations 2
GAMG:  Solving for p_rgh, Initial residual = 3.61662e-06, Final residual = 2.85005e-09, No Iterations 5
PIMPLE: iteration 3
MULES: Solving for alpha.air
MULES: Solving for alpha.air
alpha.air volume fraction = 0.293391  Min(alpha1) = 1.94397e-97  Max(alpha1) = 1
Constructing momentum equations
smoothSolver:  Solving for e.air, Initial residual = 0.00744655, Final residual = 4.54319e-13, No Iterations 2
smoothSolver:  Solving for e.water, Initial residual = 0.00114182, Final residual = 2.6257e-09, No Iterations 2
GAMG:  Solving for p_rgh, Initial residual = 1.46635e-06, Final residual = 2.77509e-09, No Iterations 3
ExecutionTime = 1.31 s


Courant Number mean: 0.0216423 max: 0.381052
Max Ur Courant Number = 0.345692
Time = 0.175

PIMPLE: iteration 1
MULES: Solving for alpha.air
MULES: Solving for alpha.air
alpha.air volume fraction = 0.29339  Min(alpha1) = 2.25457e-97  Max(alpha1) = 1
Constructing momentum equations
smoothSolver:  Solving for e.air, Initial residual = 0.00641766, Final residual = 2.02543e-13, No Iterations 2
smoothSolver:  Solving for e.water, Initial residual = 0.0193891, Final residual = 4.56703e-10, No Iterations 3
GAMG:  Solving for p_rgh, Initial residual = 1.12966e-05, Final residual = 6.32208e-09, No Iterations 5
PIMPLE: iteration 2
MULES: Solving for alpha.air
MULES: Solving for alpha.air
alpha.air volume fraction = 0.293392  Min(alpha1) = 2.74291e-97  Max(alpha1) = 1
Constructing momentum equations
smoothSolver:  Solving for e.air, Initial residual = 0.0250711, Final residual = 5.62508e-13, No Iterations 2
smoothSolver:  Solving for e.water, Initial residual = 0.00233927, Final residual = 1.62498e-09, No Iterations 2
GAMG:  Solving for p_rgh, Initial residual = 2.83711e-06, Final residual = 6.43485e-09, No Iterations 4
PIMPLE: iteration 3
MULES: Solving for alpha.air
MULES: Solving for alpha.air
alpha.air volume fraction = 0.293392  Min(alpha1) = 6.77138e-97  Max(alpha1) = 1
Constructing momentum equations
smoothSolver:  Solving for e.air, Initial residual = 0.00643107, Final residual = 2.33339e-13, No Iterations 2
smoothSolver:  Solving for e.water, Initial residual = 0.00146463, Final residual = 1.79169e-09, No Iterations 2
GAMG:  Solving for p_rgh, Initial residual = 1.06621e-06, Final residual = 7.05529e-09, No Iterations 3
ExecutionTime = 1.34 s


Courant Number mean: 0.0218629 max: 0.403772
Max Ur Courant Number = 0.368846
Time = 0.18

PIMPLE: iteration 1
MULES: Solving for alpha.air
MULES: Solving for alpha.air
alpha.air volume fraction = 0.293392  Min(alpha1) = 1.47026e-96  Max(alpha1) = 1
Constructing momentum equations
smoothSolver:  Solving for e.air, Initial residual = 0.00460331, Final residual = 1.65549e-13, No Iterations 2
smoothSolver:  Solving for e.water, Initial residual = 0.0203394, Final residual = 4.2541e-10, No Iterations 3
GAMG:  Solving for p_rgh, Initial residual = 1.12476e-05, Final residual = 9.06243e-09, No Iterations 5
PIMPLE: iteration 2
MULES: Solving for alpha.air
MULES: Solving for alpha.air
alpha.air volume fraction = 0.29339  Min(alpha1) = 2.1801e-96  Max(alpha1) = 1
Constructing momentum equations
smoothSolver:  Solving for e.air, Initial residual = 0.0262716, Final residual = 2.63041e-13, No Iterations 2
smoothSolver:  Solving for e.water, Initial residual = 0.00150212, Final residual = 3.83072e-09, No Iterations 2
GAMG:  Solving for p_rgh, Initial residual = 2.56771e-06, Final residual = 6.29331e-09, No Iterations 3
PIMPLE: iteration 3
MULES: Solving for alpha.air
MULES: Solving for alpha.air
alpha.air volume fraction = 0.293392  Min(alpha1) = 3.229e-96  Max(alpha1) = 1
Constructing momentum equations
smoothSolver:  Solving for e.air, Initial residual = 0.00141903, Final residual = 7.22877e-09, No Iterations 1
smoothSolver:  Solving for e.water, Initial residual = 0.00168679, Final residual = 6.8544e-09, No Iterations 2
GAMG:  Solving for p_rgh, Initial residual = 1.19288e-06, Final residual = 7.83387e-09, No Iterations 3
ExecutionTime = 1.37 s


Courant Number mean: 0.0219208 max: 0.391563
Max Ur Courant Number = 0.339987
Time = 0.185

PIMPLE: iteration 1
MULES: Solving for alpha.air
MULES: Solving for alpha.air
alpha.air volume fraction = 0.293391  Min(alpha1) = 7.15526e-96  Max(alpha1) = 1
Constructing momentum equations
smoothSolver:  Solving for e.air, Initial residual = 0.0043848, Final residual = 1.63795e-13, No Iterations 2
smoothSolver:  Solving for e.water, Initial residual = 0.0184379, Final residual = 5.1119e-10, No Iterations 3
GAMG:  Solving for p_rgh, Initial residual = 8.67123e-06, Final residual = 4.19756e-09, No Iterations 5
PIMPLE: iteration 2
MULES: Solving for alpha.air
MULES: Solving for alpha.air
alpha.air volume fraction = 0.293391  Min(alpha1) = 1.21588e-95  Max(alpha1) = 1
Constructing momentum equations
smoothSolver:  Solving for e.air, Initial residual = 0.0148222, Final residual = 2.09841e-13, No Iterations 2
smoothSolver:  Solving for e.water, Initial residual = 0.00160086, Final residual = 4.22598e-09, No Iterations 2
GAMG:  Solving for p_rgh, Initial residual = 2.11856e-06, Final residual = 6.12749e-09, No Iterations 4
PIMPLE: iteration 3
MULES: Solving for alpha.air
MULES: Solving for alpha.air
alpha.air volume fraction = 0.293392  Min(alpha1) = 2.53169e-95  Max(alpha1) = 1
Constructing momentum equations
smoothSolver:  Solving for e.air, Initial residual = 0.00185121, Final residual = 8.47529e-09, No Iterations 1
smoothSolver:  Solving for e.water, Initial residual = 0.000818032, Final residual = 4.36014e-09, No Iterations 2
GAMG:  Solving for p_rgh, Initial residual = 8.25665e-07, Final residual = 8.36621e-09, No Iterations 2
ExecutionTime = 1.4 s


Courant Number mean: 0.0220777 max: 0.388643
Max Ur Courant Number = 0.327151
Time = 0.19

PIMPLE: iteration 1
MULES: Solving for alpha.air
MULES: Solving for alpha.air
alpha.air volume fraction = 0.293391  Min(alpha1) = 6.52689e-95  Max(alpha1) = 1
Constructing momentum equations
smoothSolver:  Solving for e.air, Initial residual = 0.00667414, Final residual = 1.7642e-13, No Iterations 2
smoothSolver:  Solving for e.water, Initial residual = 0.0171107, Final residual = 6.67307e-10, No Iterations 3
GAMG:  Solving for p_rgh, Initial residual = 7.49047e-06, Final residual = 4.2996e-09, No Iterations 4
PIMPLE: iteration 2
MULES: Solving for alpha.air
MULES: Solving for alpha.air
alpha.air volume fraction = 0.293391  Min(alpha1) = 3.17482e-94  Max(alpha1) = 1
Constructing momentum equations
smoothSolver:  Solving for e.air, Initial residual = 0.0147116, Final residual = 3.56902e-13, No Iterations 2
smoothSolver:  Solving for e.water, Initial residual = 0.00200972, Final residual = 5.96231e-11, No Iterations 3
GAMG:  Solving for p_rgh, Initial residual = 1.64815e-06, Final residual = 5.97192e-09, No Iterations 4
PIMPLE: iteration 3
MULES: Solving for alpha.air
MULES: Solving for alpha.air
alpha.air volume fraction = 0.293392  Min(alpha1) = 1.04188e-93  Max(alpha1) = 1
Constructing momentum equations
smoothSolver:  Solving for e.air, Initial residual = 0.00337308, Final residual = 2.07479e-13, No Iterations 2
smoothSolver:  Solving for e.water, Initial residual = 0.00103001, Final residual = 8.7417e-09, No Iterations 2
GAMG:  Solving for p_rgh, Initial residual = 6.98884e-07, Final residual = 6.81139e-09, No Iterations 2
ExecutionTime = 1.43 s


Courant Number mean: 0.0223514 max: 0.394048
Max Ur Courant Number = 0.323971
Time = 0.195

PIMPLE: iteration 1
MULES: Solving for alpha.air
MULES: Solving for alpha.air
alpha.air volume fraction = 0.293392  Min(alpha1) = 1.94397e-93  Max(alpha1) = 1
Constructing momentum equations
smoothSolver:  Solving for e.air, Initial residual = 0.00238793, Final residual = 1.49225e-13, No Iterations 2
smoothSolver:  Solving for e.water, Initial residual = 0.0163824, Final residual = 1.2099e-09, No Iterations 3
GAMG:  Solving for p_rgh, Initial residual = 8.68618e-06, Final residual = 6.42497e-09, No Iterations 4
PIMPLE: iteration 2
MULES: Solving for alpha.air
MULES: Solving for alpha.air
alpha.air volume fraction = 0.293392  Min(alpha1) = 1.92182e-93  Max(alpha1) = 1
Constructing momentum equations
smoothSolver:  Solving for e.air, Initial residual = 0.0190319, Final residual = 4.91915e-13, No Iterations 2
smoothSolver:  Solving for e.water, Initial residual = 0.00299444, Final residual = 8.64238e-11, No Iterations 3
GAMG:  Solving for p_rgh, Initial residual = 2.57372e-06, Final residual = 9.03698e-09, No Iterations 4
PIMPLE: iteration 3
MULES: Solving for alpha.air
MULES: Solving for alpha.air
alpha.air volume fraction = 0.293392  Min(alpha1) = 2.03672e-93  Max(alpha1) = 1
Constructing momentum equations
smoothSolver:  Solving for e.air, Initial residual = 0.00340552, Final residual = 9.79193e-09, No Iterations 1
smoothSolver:  Solving for e.water, Initial residual = 0.000918844, Final residual = 6.57544e-09, No Iterations 2
GAMG:  Solving for p_rgh, Initial residual = 1.11869e-06, Final residual = 4.62731e-09, No Iterations 3
ExecutionTime = 1.46 s


Courant Number mean: 0.0227912 max: 0.403221
Max Ur Courant Number = 0.327264
Time = 0.2

PIMPLE: iteration 1
MULES: Solving for alpha.air
MULES: Solving for alpha.air
alpha.air volume fraction = 0.293392  Min(alpha1) = 2.48389e-93  Max(alpha1) = 1
Constructing momentum equations
smoothSolver:  Solving for e.air, Initial residual = 0.00186697, Final residual = 7.28439e-09, No Iterations 1
smoothSolver:  Solving for e.water, Initial residual = 0.0155501, Final residual = 1.03804e-09, No Iterations 3
GAMG:  Solving for p_rgh, Initial residual = 1.08334e-05, Final residual = 9.16305e-09, No Iterations 5
PIMPLE: iteration 2
MULES: Solving for alpha.air
MULES: Solving for alpha.air
alpha.air volume fraction = 0.293392  Min(alpha1) = 2.77653e-93  Max(alpha1) = 1
Constructing momentum equations
smoothSolver:  Solving for e.air, Initial residual = 0.0187532, Final residual = 4.34603e-13, No Iterations 2
smoothSolver:  Solving for e.water, Initial residual = 0.0021706, Final residual = 6.15434e-09, No Iterations 2
GAMG:  Solving for p_rgh, Initial residual = 1.64967e-06, Final residual = 6.44719e-09, No Iterations 4
PIMPLE: iteration 3
MULES: Solving for alpha.air
MULES: Solving for alpha.air
alpha.air volume fraction = 0.293392  Min(alpha1) = 2.69349e-93  Max(alpha1) = 1
Constructing momentum equations
smoothSolver:  Solving for e.air, Initial residual = 0.00356579, Final residual = 2.5149e-13, No Iterations 2
smoothSolver:  Solving for e.water, Initial residual = 0.000822127, Final residual = 8.14036e-09, No Iterations 2
GAMG:  Solving for p_rgh, Initial residual = 6.29294e-07, Final residual = 5.19396e-09, No Iterations 3
ExecutionTime = 1.5 s


Courant Number mean: 0.023129 max: 0.412616
Max Ur Courant Number = 0.332979
Time = 0.205

PIMPLE: iteration 1
MULES: Solving for alpha.air
MULES: Solving for alpha.air
alpha.air volume fraction = 0.293392  Min(alpha1) = 3.42306e-93  Max(alpha1) = 1
Constructing momentum equations
smoothSolver:  Solving for e.air, Initial residual = 0.00139654, Final residual = 6.06523e-09, No Iterations 1
smoothSolver:  Solving for e.water, Initial residual = 0.014925, Final residual = 9.43114e-10, No Iterations 3
GAMG:  Solving for p_rgh, Initial residual = 8.73653e-06, Final residual = 9.97766e-09, No Iterations 4
PIMPLE: iteration 2
MULES: Solving for alpha.air
MULES: Solving for alpha.air
alpha.air volume fraction = 0.293392  Min(alpha1) = 3.36052e-93  Max(alpha1) = 1
Constructing momentum equations
smoothSolver:  Solving for e.air, Initial residual = 0.0180236, Final residual = 4.97606e-13, No Iterations 2
smoothSolver:  Solving for e.water, Initial residual = 0.00175191, Final residual = 4.72671e-09, No Iterations 2
GAMG:  Solving for p_rgh, Initial residual = 1.65971e-06, Final residual = 6.16649e-09, No Iterations 4
PIMPLE: iteration 3
MULES: Solving for alpha.air
MULES: Solving for alpha.air
alpha.air volume fraction = 0.293392  Min(alpha1) = 3.52669e-93  Max(alpha1) = 1
Constructing momentum equations
smoothSolver:  Solving for e.air, Initial residual = 0.00213631, Final residual = 2.67438e-13, No Iterations 2
smoothSolver:  Solving for e.water, Initial residual = 0.000800731, Final residual = 6.65362e-11, No Iterations 3
GAMG:  Solving for p_rgh, Initial residual = 6.65707e-07, Final residual = 4.82313e-09, No Iterations 3
ExecutionTime = 1.54 s


Courant Number mean: 0.0234936 max: 0.421955
Max Ur Courant Number = 0.339466
Time = 0.21

PIMPLE: iteration 1
MULES: Solving for alpha.air
MULES: Solving for alpha.air
alpha.air volume fraction = 0.293392  Min(alpha1) = 4.17495e-93  Max(alpha1) = 1
Constructing momentum equations
smoothSolver:  Solving for e.air, Initial residual = 0.00160624, Final residual = 9.8205e-09, No Iterations 1
smoothSolver:  Solving for e.water, Initial residual = 0.0143646, Final residual = 1.32301e-09, No Iterations 3
GAMG:  Solving for p_rgh, Initial residual = 9.50957e-06, Final residual = 5.91983e-09, No Iterations 4
PIMPLE: iteration 2
MULES: Solving for alpha.air
MULES: Solving for alpha.air
alpha.air volume fraction = 0.293394  Min(alpha1) = 4.53088e-93  Max(alpha1) = 1
Constructing momentum equations
smoothSolver:  Solving for e.air, Initial residual = 0.0285755, Final residual = 6.30874e-13, No Iterations 2
smoothSolver:  Solving for e.water, Initial residual = 0.00267494, Final residual = 3.95693e-10, No Iterations 3
GAMG:  Solving for p_rgh, Initial residual = 2.30881e-06, Final residual = 6.75988e-09, No Iterations 4
PIMPLE: iteration 3
MULES: Solving for alpha.air
MULES: Solving for alpha.air
alpha.air volume fraction = 0.293393  Min(alpha1) = 4.36457e-93  Max(alpha1) = 1
Constructing momentum equations
smoothSolver:  Solving for e.air, Initial residual = 0.0074654, Final residual = 1.97284e-13, No Iterations 2
smoothSolver:  Solving for e.water, Initial residual = 0.00124394, Final residual = 3.43314e-10, No Iterations 3
GAMG:  Solving for p_rgh, Initial residual = 8.54514e-07, Final residual = 4.47452e-09, No Iterations 3
ExecutionTime = 1.57 s


Courant Number mean: 0.0239292 max: 0.4273
Max Ur Courant Number = 0.346212
Time = 0.215

PIMPLE: iteration 1
MULES: Solving for alpha.air
MULES: Solving for alpha.air
alpha.air volume fraction = 0.293394  Min(alpha1) = 5.36545e-93  Max(alpha1) = 1
Constructing momentum equations
smoothSolver:  Solving for e.air, Initial residual = 0.0060016, Final residual = 1.69646e-13, No Iterations 2
smoothSolver:  Solving for e.water, Initial residual = 0.0149825, Final residual = 3.42518e-09, No Iterations 3
GAMG:  Solving for p_rgh, Initial residual = 1.03279e-05, Final residual = 5.26694e-09, No Iterations 4
PIMPLE: iteration 2
MULES: Solving for alpha.air
MULES: Solving for alpha.air
alpha.air volume fraction = 0.293397  Min(alpha1) = 5.3477e-93  Max(alpha1) = 1
Constructing momentum equations
smoothSolver:  Solving for e.air, Initial residual = 0.0325257, Final residual = 7.54701e-13, No Iterations 2
smoothSolver:  Solving for e.water, Initial residual = 0.00315627, Final residual = 5.27258e-10, No Iterations 3
GAMG:  Solving for p_rgh, Initial residual = 5.13884e-06, Final residual = 6.65687e-09, No Iterations 4
PIMPLE: iteration 3
MULES: Solving for alpha.air
MULES: Solving for alpha.air
alpha.air volume fraction = 0.293393  Min(alpha1) = 5.53347e-93  Max(alpha1) = 1
Constructing momentum equations
smoothSolver:  Solving for e.air, Initial residual = 0.00355969, Final residual = 2.62484e-13, No Iterations 2
smoothSolver:  Solving for e.water, Initial residual = 0.000704865, Final residual = 2.08246e-10, No Iterations 3
GAMG:  Solving for p_rgh, Initial residual = 3.63276e-06, Final residual = 4.95294e-09, No Iterations 4
ExecutionTime = 1.6 s


Courant Number mean: 0.0244321 max: 0.429647
Max Ur Courant Number = 0.352688
Time = 0.22

PIMPLE: iteration 1
MULES: Solving for alpha.air
MULES: Solving for alpha.air
alpha.air volume fraction = 0.293398  Min(alpha1) = 6.45635e-93  Max(alpha1) = 1
Constructing momentum equations
smoothSolver:  Solving for e.air, Initial residual = 0.0205215, Final residual = 6.62731e-11, No Iterations 2
smoothSolver:  Solving for e.water, Initial residual = 0.0153489, Final residual = 3.78689e-09, No Iterations 3
GAMG:  Solving for p_rgh, Initial residual = 1.43735e-05, Final residual = 3.33545e-09, No Iterations 5
PIMPLE: iteration 2
MULES: Solving for alpha.air
MULES: Solving for alpha.air
alpha.air volume fraction = 0.293397  Min(alpha1) = 6.87703e-93  Max(alpha1) = 1
Constructing momentum equations
smoothSolver:  Solving for e.air, Initial residual = 0.0257212, Final residual = 8.61872e-13, No Iterations 2
smoothSolver:  Solving for e.water, Initial residual = 0.00303043, Final residual = 3.50806e-10, No Iterations 3
GAMG:  Solving for p_rgh, Initial residual = 1.24788e-05, Final residual = 4.37496e-09, No Iterations 4
PIMPLE: iteration 3
MULES: Solving for alpha.air
MULES: Solving for alpha.air
alpha.air volume fraction = 0.293393  Min(alpha1) = 6.65392e-93  Max(alpha1) = 1
Constructing momentum equations
smoothSolver:  Solving for e.air, Initial residual = 0.00833238, Final residual = 1.79024e-12, No Iterations 2
smoothSolver:  Solving for e.water, Initial residual = 0.00110785, Final residual = 1.75503e-10, No Iterations 3
GAMG:  Solving for p_rgh, Initial residual = 1.07601e-05, Final residual = 7.38527e-09, No Iterations 4
ExecutionTime = 1.63 s


Courant Number mean: 0.024928 max: 0.428306
Max Ur Courant Number = 0.354369
Time = 0.225

PIMPLE: iteration 1
MULES: Solving for alpha.air
MULES: Solving for alpha.air
alpha.air volume fraction = 0.293398  Min(alpha1) = 8.03415e-93  Max(alpha1) = 1
Constructing momentum equations
smoothSolver:  Solving for e.air, Initial residual = 0.0211594, Final residual = 2.89365e-13, No Iterations 2
smoothSolver:  Solving for e.water, Initial residual = 0.0158849, Final residual = 4.32135e-09, No Iterations 3
GAMG:  Solving for p_rgh, Initial residual = 2.1693e-05, Final residual = 8.67537e-09, No Iterations 5
PIMPLE: iteration 2
MULES: Solving for alpha.air
MULES: Solving for alpha.air
alpha.air volume fraction = 0.293395  Min(alpha1) = 7.9193e-93  Max(alpha1) = 1
Constructing momentum equations
smoothSolver:  Solving for e.air, Initial residual = 0.0155811, Final residual = 4.01305e-13, No Iterations 2
smoothSolver:  Solving for e.water, Initial residual = 0.00204558, Final residual = 3.1292e-10, No Iterations 3
GAMG:  Solving for p_rgh, Initial residual = 2.02296e-05, Final residual = 9.15158e-09, No Iterations 4
PIMPLE: iteration 3
MULES: Solving for alpha.air
MULES: Solving for alpha.air
alpha.air volume fraction = 0.293393  Min(alpha1) = 8.20346e-93  Max(alpha1) = 1
Constructing momentum equations
smoothSolver:  Solving for e.air, Initial residual = 0.00331214, Final residual = 2.34553e-13, No Iterations 2
smoothSolver:  Solving for e.water, Initial residual = 0.000827832, Final residual = 1.81074e-10, No Iterations 3
GAMG:  Solving for p_rgh, Initial residual = 2.0573e-05, Final residual = 6.15569e-09, No Iterations 4
ExecutionTime = 1.66 s


Courant Number mean: 0.0253709 max: 0.428589
Max Ur Courant Number = 0.354546
Time = 0.23

PIMPLE: iteration 1
MULES: Solving for alpha.air
MULES: Solving for alpha.air
alpha.air volume fraction = 0.293398  Min(alpha1) = 9.38856e-93  Max(alpha1) = 1
Constructing momentum equations
smoothSolver:  Solving for e.air, Initial residual = 0.0183216, Final residual = 2.77989e-13, No Iterations 2
smoothSolver:  Solving for e.water, Initial residual = 0.0164591, Final residual = 4.55144e-09, No Iterations 3
GAMG:  Solving for p_rgh, Initial residual = 2.05215e-05, Final residual = 8.69975e-09, No Iterations 5
PIMPLE: iteration 2
MULES: Solving for alpha.air
MULES: Solving for alpha.air
alpha.air volume fraction = 0.293395  Min(alpha1) = 1.00342e-92  Max(alpha1) = 1
Constructing momentum equations
smoothSolver:  Solving for e.air, Initial residual = 0.0256972, Final residual = 6.29317e-13, No Iterations 2
smoothSolver:  Solving for e.water, Initial residual = 0.00169716, Final residual = 1.26551e-10, No Iterations 3
GAMG:  Solving for p_rgh, Initial residual = 1.03865e-05, Final residual = 3.76645e-09, No Iterations 4
PIMPLE: iteration 3
MULES: Solving for alpha.air
MULES: Solving for alpha.air
alpha.air volume fraction = 0.293392  Min(alpha1) = 9.65671e-93  Max(alpha1) = 1
Constructing momentum equations
[...]

PIMPLE: iteration 1
MULES: Solving for alpha.air
MULES: Solving for alpha.air
alpha.air volume fraction = 0.296723  Min(alpha1) = 1.76294e-33  Max(alpha1) = 1
Constructing momentum equations
smoothSolver:  Solving for e.air, Initial residual = 0.00119609, Final residual = 6.38513e-10, No Iterations 2
smoothSolver:  Solving for e.water, Initial residual = 0.00120527, Final residual = 1.5664e-09, No Iterations 2
GAMG:  Solving for p_rgh, Initial residual = 1.49642e-06, Final residual = 2.65692e-09, No Iterations 2
PIMPLE: iteration 2
MULES: Solving for alpha.air
MULES: Solving for alpha.air
alpha.air volume fraction = 0.296723  Min(alpha1) = 1.78683e-33  Max(alpha1) = 1
Constructing momentum equations
smoothSolver:  Solving for e.air, Initial residual = 0.00149646, Final residual = 1.13177e-09, No Iterations 2
smoothSolver:  Solving for e.water, Initial residual = 1.31242e-05, Final residual = 2.76693e-11, No Iterations 2
GAMG:  Solving for p_rgh, Initial residual = 6.6263e-07, Final residual = 1.60747e-09, No Iterations 2
PIMPLE: iteration 3
MULES: Solving for alpha.air
MULES: Solving for alpha.air
alpha.air volume fraction = 0.296723  Min(alpha1) = 1.7842e-33  Max(alpha1) = 1
Constructing momentum equations
smoothSolver:  Solving for e.air, Initial residual = 0.000947945, Final residual = 6.40723e-10, No Iterations 2
smoothSolver:  Solving for e.water, Initial residual = 9.86068e-07, Final residual = 1.01568e-09, No Iterations 1
GAMG:  Solving for p_rgh, Initial residual = 2.54942e-07, Final residual = 5.98748e-09, No Iterations 1
ExecutionTime = 65.02 s


Courant Number mean: 0.0510533 max: 0.176888
Max Ur Courant Number = 0.223233
Time = 9.95

PIMPLE: iteration 1
MULES: Solving for alpha.air
MULES: Solving for alpha.air
alpha.air volume fraction = 0.296723  Min(alpha1) = 1.58818e-33  Max(alpha1) = 1
Constructing momentum equations
smoothSolver:  Solving for e.air, Initial residual = 0.00184886, Final residual = 2.22443e-09, No Iterations 2
smoothSolver:  Solving for e.water, Initial residual = 0.00120255, Final residual = 1.53754e-09, No Iterations 2
GAMG:  Solving for p_rgh, Initial residual = 1.46334e-06, Final residual = 3.74578e-09, No Iterations 2
PIMPLE: iteration 2
MULES: Solving for alpha.air
MULES: Solving for alpha.air
alpha.air volume fraction = 0.296723  Min(alpha1) = 1.60973e-33  Max(alpha1) = 1
Constructing momentum equations
smoothSolver:  Solving for e.air, Initial residual = 0.0028406, Final residual = 2.78776e-09, No Iterations 2
smoothSolver:  Solving for e.water, Initial residual = 1.32179e-05, Final residual = 2.44925e-11, No Iterations 2
GAMG:  Solving for p_rgh, Initial residual = 6.3338e-07, Final residual = 1.5909e-09, No Iterations 2
PIMPLE: iteration 3
MULES: Solving for alpha.air
MULES: Solving for alpha.air
alpha.air volume fraction = 0.296723  Min(alpha1) = 1.60734e-33  Max(alpha1) = 1
Constructing momentum equations
smoothSolver:  Solving for e.air, Initial residual = 0.00190069, Final residual = 1.86553e-09, No Iterations 2
smoothSolver:  Solving for e.water, Initial residual = 1.20456e-06, Final residual = 1.06039e-09, No Iterations 1
GAMG:  Solving for p_rgh, Initial residual = 1.78343e-07, Final residual = 4.44518e-09, No Iterations 1
ExecutionTime = 65.05 s


Courant Number mean: 0.0509723 max: 0.173881
Max Ur Courant Number = 0.222507
Time = 9.955

PIMPLE: iteration 1
MULES: Solving for alpha.air
MULES: Solving for alpha.air
alpha.air volume fraction = 0.296723  Min(alpha1) = 1.43075e-33  Max(alpha1) = 1
Constructing momentum equations
smoothSolver:  Solving for e.air, Initial residual = 0.00109043, Final residual = 7.69847e-10, No Iterations 2
smoothSolver:  Solving for e.water, Initial residual = 0.00119951, Final residual = 1.54114e-09, No Iterations 2
GAMG:  Solving for p_rgh, Initial residual = 1.42028e-06, Final residual = 2.56743e-09, No Iterations 2
PIMPLE: iteration 2
MULES: Solving for alpha.air
MULES: Solving for alpha.air
alpha.air volume fraction = 0.296723  Min(alpha1) = 1.45014e-33  Max(alpha1) = 1
Constructing momentum equations
smoothSolver:  Solving for e.air, Initial residual = 0.00130486, Final residual = 5.08749e-10, No Iterations 2
smoothSolver:  Solving for e.water, Initial residual = 1.27779e-05, Final residual = 9.44092e-09, No Iterations 1
GAMG:  Solving for p_rgh, Initial residual = 6.38747e-07, Final residual = 1.92198e-09, No Iterations 2
PIMPLE: iteration 3
MULES: Solving for alpha.air
MULES: Solving for alpha.air
alpha.air volume fraction = 0.296723  Min(alpha1) = 1.44801e-33  Max(alpha1) = 1
Constructing momentum equations
smoothSolver:  Solving for e.air, Initial residual = 0.000761817, Final residual = 3.227e-10, No Iterations 2
smoothSolver:  Solving for e.water, Initial residual = 1.1224e-06, Final residual = 1.06679e-09, No Iterations 1
GAMG:  Solving for p_rgh, Initial residual = 1.76849e-07, Final residual = 3.80936e-09, No Iterations 1
ExecutionTime = 65.08 s


Courant Number mean: 0.0508891 max: 0.170702
Max Ur Courant Number = 0.222007
Time = 9.96

PIMPLE: iteration 1
MULES: Solving for alpha.air
MULES: Solving for alpha.air
alpha.air volume fraction = 0.296723  Min(alpha1) = 1.2889e-33  Max(alpha1) = 1
Constructing momentum equations
smoothSolver:  Solving for e.air, Initial residual = 0.00110694, Final residual = 8.99574e-10, No Iterations 2
smoothSolver:  Solving for e.water, Initial residual = 0.0011957, Final residual = 1.5259e-09, No Iterations 2
GAMG:  Solving for p_rgh, Initial residual = 1.33278e-06, Final residual = 3.12396e-09, No Iterations 2
PIMPLE: iteration 2
MULES: Solving for alpha.air
MULES: Solving for alpha.air
alpha.air volume fraction = 0.296723  Min(alpha1) = 1.3064e-33  Max(alpha1) = 1
Constructing momentum equations
smoothSolver:  Solving for e.air, Initial residual = 0.0015395, Final residual = 8.26567e-10, No Iterations 2
smoothSolver:  Solving for e.water, Initial residual = 1.28176e-05, Final residual = 9.75271e-09, No Iterations 1
GAMG:  Solving for p_rgh, Initial residual = 6.78644e-07, Final residual = 2.75423e-09, No Iterations 2
PIMPLE: iteration 3
MULES: Solving for alpha.air
MULES: Solving for alpha.air
alpha.air volume fraction = 0.296723  Min(alpha1) = 1.30446e-33  Max(alpha1) = 1
Constructing momentum equations
smoothSolver:  Solving for e.air, Initial residual = 0.00130429, Final residual = 6.82993e-10, No Iterations 2
smoothSolver:  Solving for e.water, Initial residual = 1.24459e-06, Final residual = 1.24508e-09, No Iterations 1
GAMG:  Solving for p_rgh, Initial residual = 2.10604e-07, Final residual = 5.31266e-09, No Iterations 1
ExecutionTime = 65.11 s


Courant Number mean: 0.0508051 max: 0.170386
Max Ur Courant Number = 0.221378
Time = 9.965

PIMPLE: iteration 1
MULES: Solving for alpha.air
MULES: Solving for alpha.air
alpha.air volume fraction = 0.296723  Min(alpha1) = 1.16113e-33  Max(alpha1) = 1
Constructing momentum equations
smoothSolver:  Solving for e.air, Initial residual = 0.00133418, Final residual = 9.34923e-10, No Iterations 2
smoothSolver:  Solving for e.water, Initial residual = 0.00119198, Final residual = 1.5038e-09, No Iterations 2
GAMG:  Solving for p_rgh, Initial residual = 1.25147e-06, Final residual = 3.4075e-09, No Iterations 2
PIMPLE: iteration 2
MULES: Solving for alpha.air
MULES: Solving for alpha.air
alpha.air volume fraction = 0.296723  Min(alpha1) = 1.17687e-33  Max(alpha1) = 1
Constructing momentum equations
smoothSolver:  Solving for e.air, Initial residual = 0.00186403, Final residual = 1.12951e-09, No Iterations 2
smoothSolver:  Solving for e.water, Initial residual = 1.23349e-05, Final residual = 8.83348e-09, No Iterations 1
GAMG:  Solving for p_rgh, Initial residual = 6.70051e-07, Final residual = 2.18505e-09, No Iterations 2
PIMPLE: iteration 3
MULES: Solving for alpha.air
MULES: Solving for alpha.air
alpha.air volume fraction = 0.296723  Min(alpha1) = 1.17514e-33  Max(alpha1) = 1
Constructing momentum equations
smoothSolver:  Solving for e.air, Initial residual = 0.00134697, Final residual = 8.70041e-10, No Iterations 2
smoothSolver:  Solving for e.water, Initial residual = 1.30319e-06, Final residual = 1.09031e-09, No Iterations 1
GAMG:  Solving for p_rgh, Initial residual = 1.79236e-07, Final residual = 4.19329e-09, No Iterations 1
ExecutionTime = 65.14 s


Courant Number mean: 0.0507212 max: 0.170064
Max Ur Courant Number = 0.219573
Time = 9.97

PIMPLE: iteration 1
MULES: Solving for alpha.air
MULES: Solving for alpha.air
alpha.air volume fraction = 0.296723  Min(alpha1) = 1.04602e-33  Max(alpha1) = 1
Constructing momentum equations
smoothSolver:  Solving for e.air, Initial residual = 0.00108619, Final residual = 8.64138e-10, No Iterations 2
smoothSolver:  Solving for e.water, Initial residual = 0.00118771, Final residual = 1.48877e-09, No Iterations 2
GAMG:  Solving for p_rgh, Initial residual = 1.18977e-06, Final residual = 3.66208e-09, No Iterations 2
PIMPLE: iteration 2
MULES: Solving for alpha.air
MULES: Solving for alpha.air
alpha.air volume fraction = 0.296723  Min(alpha1) = 1.06021e-33  Max(alpha1) = 1
Constructing momentum equations
smoothSolver:  Solving for e.air, Initial residual = 0.00168288, Final residual = 9.3878e-10, No Iterations 2
smoothSolver:  Solving for e.water, Initial residual = 1.23641e-05, Final residual = 8.07433e-09, No Iterations 1
GAMG:  Solving for p_rgh, Initial residual = 6.26535e-07, Final residual = 3.28383e-09, No Iterations 2
PIMPLE: iteration 3
MULES: Solving for alpha.air
MULES: Solving for alpha.air
alpha.air volume fraction = 0.296723  Min(alpha1) = 1.05864e-33  Max(alpha1) = 1
Constructing momentum equations
smoothSolver:  Solving for e.air, Initial residual = 0.00151228, Final residual = 6.64631e-10, No Iterations 2
smoothSolver:  Solving for e.water, Initial residual = 1.40518e-06, Final residual = 1.09063e-09, No Iterations 1
GAMG:  Solving for p_rgh, Initial residual = 2.31542e-07, Final residual = 4.80511e-09, No Iterations 1
ExecutionTime = 65.17 s


Courant Number mean: 0.0506374 max: 0.169738
Max Ur Courant Number = 0.217846
Time = 9.975

PIMPLE: iteration 1
MULES: Solving for alpha.air
MULES: Solving for alpha.air
alpha.air volume fraction = 0.296723  Min(alpha1) = 9.42318e-34  Max(alpha1) = 1
Constructing momentum equations
smoothSolver:  Solving for e.air, Initial residual = 0.00122331, Final residual = 1.06694e-09, No Iterations 2
smoothSolver:  Solving for e.water, Initial residual = 0.00118377, Final residual = 1.47139e-09, No Iterations 2
GAMG:  Solving for p_rgh, Initial residual = 1.15195e-06, Final residual = 3.3966e-09, No Iterations 2
PIMPLE: iteration 2
MULES: Solving for alpha.air
MULES: Solving for alpha.air
alpha.air volume fraction = 0.296723  Min(alpha1) = 9.55098e-34  Max(alpha1) = 1
Constructing momentum equations
smoothSolver:  Solving for e.air, Initial residual = 0.00183268, Final residual = 1.1836e-09, No Iterations 2
smoothSolver:  Solving for e.water, Initial residual = 1.26267e-05, Final residual = 9.29338e-09, No Iterations 1
GAMG:  Solving for p_rgh, Initial residual = 6.29059e-07, Final residual = 3.29044e-09, No Iterations 2
PIMPLE: iteration 3
MULES: Solving for alpha.air
MULES: Solving for alpha.air
alpha.air volume fraction = 0.296723  Min(alpha1) = 9.53692e-34  Max(alpha1) = 1
Constructing momentum equations
smoothSolver:  Solving for e.air, Initial residual = 0.00161782, Final residual = 9.2032e-10, No Iterations 2
smoothSolver:  Solving for e.water, Initial residual = 1.35733e-06, Final residual = 1.13699e-09, No Iterations 1
GAMG:  Solving for p_rgh, Initial residual = 2.54523e-07, Final residual = 6.4559e-09, No Iterations 1
ExecutionTime = 65.2 s


Courant Number mean: 0.0505552 max: 0.169409
Max Ur Courant Number = 0.215267
Time = 9.98

PIMPLE: iteration 1
MULES: Solving for alpha.air
MULES: Solving for alpha.air
alpha.air volume fraction = 0.296723  Min(alpha1) = 8.48893e-34  Max(alpha1) = 1
Constructing momentum equations
smoothSolver:  Solving for e.air, Initial residual = 0.00143162, Final residual = 1.33913e-09, No Iterations 2
smoothSolver:  Solving for e.water, Initial residual = 0.00117819, Final residual = 1.45348e-09, No Iterations 2
GAMG:  Solving for p_rgh, Initial residual = 1.46334e-06, Final residual = 4.46656e-09, No Iterations 4
PIMPLE: iteration 2
MULES: Solving for alpha.air
MULES: Solving for alpha.air
alpha.air volume fraction = 0.296724  Min(alpha1) = 8.60396e-34  Max(alpha1) = 1
Constructing momentum equations
smoothSolver:  Solving for e.air, Initial residual = 0.00226947, Final residual = 1.72066e-09, No Iterations 2
smoothSolver:  Solving for e.water, Initial residual = 1.27911e-05, Final residual = 8.93115e-09, No Iterations 1
GAMG:  Solving for p_rgh, Initial residual = 6.74982e-07, Final residual = 4.85133e-09, No Iterations 2
PIMPLE: iteration 3
MULES: Solving for alpha.air
MULES: Solving for alpha.air
alpha.air volume fraction = 0.296724  Min(alpha1) = 8.59114e-34  Max(alpha1) = 1
Constructing momentum equations
smoothSolver:  Solving for e.air, Initial residual = 0.00164497, Final residual = 9.35234e-10, No Iterations 2
smoothSolver:  Solving for e.water, Initial residual = 1.39239e-06, Final residual = 1.03697e-09, No Iterations 1
GAMG:  Solving for p_rgh, Initial residual = 3.15e-07, Final residual = 9.23798e-09, No Iterations 1
ExecutionTime = 65.23 s


Courant Number mean: 0.0504765 max: 0.169079
Max Ur Courant Number = 0.212437
Time = 9.985

PIMPLE: iteration 1
MULES: Solving for alpha.air
MULES: Solving for alpha.air
alpha.air volume fraction = 0.296723  Min(alpha1) = 7.64682e-34  Max(alpha1) = 1
Constructing momentum equations
smoothSolver:  Solving for e.air, Initial residual = 0.00203778, Final residual = 1.41821e-09, No Iterations 2
smoothSolver:  Solving for e.water, Initial residual = 0.00117272, Final residual = 1.4507e-09, No Iterations 2
GAMG:  Solving for p_rgh, Initial residual = 1.22976e-06, Final residual = 5.9149e-09, No Iterations 3
PIMPLE: iteration 2
MULES: Solving for alpha.air
MULES: Solving for alpha.air
alpha.air volume fraction = 0.296723  Min(alpha1) = 7.75089e-34  Max(alpha1) = 1
Constructing momentum equations
smoothSolver:  Solving for e.air, Initial residual = 0.00313257, Final residual = 1.96898e-09, No Iterations 2
smoothSolver:  Solving for e.water, Initial residual = 1.24265e-05, Final residual = 8.26405e-09, No Iterations 1
GAMG:  Solving for p_rgh, Initial residual = 6.05627e-07, Final residual = 3.91168e-09, No Iterations 2
PIMPLE: iteration 3
MULES: Solving for alpha.air
MULES: Solving for alpha.air
alpha.air volume fraction = 0.296723  Min(alpha1) = 7.73947e-34  Max(alpha1) = 1
Constructing momentum equations
smoothSolver:  Solving for e.air, Initial residual = 0.00224325, Final residual = 1.00352e-09, No Iterations 2
smoothSolver:  Solving for e.water, Initial residual = 1.40202e-06, Final residual = 9.17452e-10, No Iterations 1
GAMG:  Solving for p_rgh, Initial residual = 3.6422e-07, Final residual = 7.96046e-09, No Iterations 1
ExecutionTime = 65.26 s


Courant Number mean: 0.0503976 max: 0.168739
Max Ur Courant Number = 0.210888
Time = 9.99

PIMPLE: iteration 1
MULES: Solving for alpha.air
MULES: Solving for alpha.air
alpha.air volume fraction = 0.296723  Min(alpha1) = 6.88902e-34  Max(alpha1) = 1
Constructing momentum equations
smoothSolver:  Solving for e.air, Initial residual = 0.00188881, Final residual = 1.8981e-09, No Iterations 2
smoothSolver:  Solving for e.water, Initial residual = 0.00116855, Final residual = 1.44516e-09, No Iterations 2
GAMG:  Solving for p_rgh, Initial residual = 1.00848e-06, Final residual = 6.67709e-09, No Iterations 2
PIMPLE: iteration 2
MULES: Solving for alpha.air
MULES: Solving for alpha.air
alpha.air volume fraction = 0.296723  Min(alpha1) = 6.98255e-34  Max(alpha1) = 1
Constructing momentum equations
smoothSolver:  Solving for e.air, Initial residual = 0.00267458, Final residual = 2.83042e-09, No Iterations 2
smoothSolver:  Solving for e.water, Initial residual = 1.2928e-05, Final residual = 8.20943e-09, No Iterations 1
GAMG:  Solving for p_rgh, Initial residual = 4.83671e-07, Final residual = 4.85966e-09, No Iterations 2
PIMPLE: iteration 3
MULES: Solving for alpha.air
MULES: Solving for alpha.air
alpha.air volume fraction = 0.296723  Min(alpha1) = 6.97223e-34  Max(alpha1) = 1
Constructing momentum equations
smoothSolver:  Solving for e.air, Initial residual = 0.00172559, Final residual = 1.25878e-09, No Iterations 2
smoothSolver:  Solving for e.water, Initial residual = 1.47696e-06, Final residual = 9.06063e-10, No Iterations 1
GAMG:  Solving for p_rgh, Initial residual = 2.28997e-07, Final residual = 8.65317e-09, No Iterations 1
ExecutionTime = 65.3 s


Courant Number mean: 0.0503187 max: 0.168403
Max Ur Courant Number = 0.208846
Time = 9.995

PIMPLE: iteration 1
MULES: Solving for alpha.air
MULES: Solving for alpha.air
alpha.air volume fraction = 0.296723  Min(alpha1) = 6.2062e-34  Max(alpha1) = 1
Constructing momentum equations
smoothSolver:  Solving for e.air, Initial residual = 0.00218933, Final residual = 1.43026e-09, No Iterations 2
smoothSolver:  Solving for e.water, Initial residual = 0.00116857, Final residual = 1.44508e-09, No Iterations 2
GAMG:  Solving for p_rgh, Initial residual = 9.73431e-07, Final residual = 3.87757e-09, No Iterations 2
PIMPLE: iteration 2
MULES: Solving for alpha.air
MULES: Solving for alpha.air
alpha.air volume fraction = 0.296723  Min(alpha1) = 6.29023e-34  Max(alpha1) = 1
Constructing momentum equations
smoothSolver:  Solving for e.air, Initial residual = 0.00337057, Final residual = 2.09302e-09, No Iterations 2
smoothSolver:  Solving for e.water, Initial residual = 1.29958e-05, Final residual = 8.4076e-09, No Iterations 1
GAMG:  Solving for p_rgh, Initial residual = 4.60958e-07, Final residual = 2.29131e-09, No Iterations 2
PIMPLE: iteration 3
MULES: Solving for alpha.air
MULES: Solving for alpha.air
alpha.air volume fraction = 0.296723  Min(alpha1) = 6.281e-34  Max(alpha1) = 1
Constructing momentum equations
smoothSolver:  Solving for e.air, Initial residual = 0.00174783, Final residual = 1.10095e-09, No Iterations 2
smoothSolver:  Solving for e.water, Initial residual = 1.08819e-06, Final residual = 7.67876e-10, No Iterations 1
GAMG:  Solving for p_rgh, Initial residual = 2.1135e-07, Final residual = 4.74104e-09, No Iterations 1
ExecutionTime = 65.32 s


Courant Number mean: 0.0502422 max: 0.168068
Max Ur Courant Number = 0.207305
Time = 10

PIMPLE: iteration 1
MULES: Solving for alpha.air
MULES: Solving for alpha.air
alpha.air volume fraction = 0.296723  Min(alpha1) = 5.59073e-34  Max(alpha1) = 1
Constructing momentum equations
smoothSolver:  Solving for e.air, Initial residual = 0.00126613, Final residual = 9.70999e-10, No Iterations 2
smoothSolver:  Solving for e.water, Initial residual = 0.00116419, Final residual = 1.43302e-09, No Iterations 2
GAMG:  Solving for p_rgh, Initial residual = 9.40884e-07, Final residual = 7.96504e-09, No Iterations 2
PIMPLE: iteration 2
MULES: Solving for alpha.air
MULES: Solving for alpha.air
alpha.air volume fraction = 0.296724  Min(alpha1) = 5.66666e-34  Max(alpha1) = 1
Constructing momentum equations
smoothSolver:  Solving for e.air, Initial residual = 0.00256517, Final residual = 1.87238e-09, No Iterations 2
smoothSolver:  Solving for e.water, Initial residual = 1.25244e-05, Final residual = 8.46102e-09, No Iterations 1
GAMG:  Solving for p_rgh, Initial residual = 4.27888e-07, Final residual = 4.90225e-09, No Iterations 2
PIMPLE: iteration 3
MULES: Solving for alpha.air
MULES: Solving for alpha.air
alpha.air volume fraction = 0.296723  Min(alpha1) = 5.65819e-34  Max(alpha1) = 1
Constructing momentum equations
smoothSolver:  Solving for e.air, Initial residual = 0.0026875, Final residual = 1.17558e-09, No Iterations 2
smoothSolver:  Solving for e.water, Initial residual = 1.35791e-06, Final residual = 1.20216e-09, No Iterations 1
GAMG:  Solving for p_rgh, Initial residual = 1.93598e-07, Final residual = 6.07278e-09, No Iterations 1
ExecutionTime = 65.36 s


End

