/*---------------------------------------------------------------------------*\
| =========                 |                                                 |
| \\      /  F ield         | OpenFOAM: The Open Source CFD Toolbox           |
|  \\    /   O peration     | Version:  v1712                                 |
|   \\  /    A nd           | Web:      www.OpenFOAM.com                      |
|    \\/     M anipulation  |                                                 |
\*---------------------------------------------------------------------------*/
Build  : v1712
Arch   : "LSB;label=32;scalar=64"
Exec   : compressibleInterFoam
Date   : Jan 04 2018
Time   : 22:03:40
Host   : "inabower-PC"
PID    : 3884
I/O    : uncollated
Case   : /media/inabower/3C9455F89455B55C/inabower/tutorials-v1712/multiphase/compressibleInterFoam/laminar/depthCharge2D
nProcs : 1
trapFpe: Floating point exception trapping enabled (FOAM_SIGFPE).
fileModificationChecking : Monitoring run-time modified files using timeStampMaster (fileModificationSkew 10)
allowSystemOperations : Allowing user-supplied system call operations

// * * * * * * * * * * * * * * * * * * * * * * * * * * * * * * * * * * * * * //
Create time

Create mesh for time = 0


PIMPLE: Operating solver in PISO mode

Reading field p_rgh

Reading field U

Reading/calculating face flux field phi

Constructing twoPhaseMixtureThermo

Selecting surfaceTensionModel liquidProperties
Selecting thermodynamics package 
{
    type            heRhoThermo;
    mixture         pureMixture;
    properties      liquid;
    energy          sensibleInternalEnergy;
}

Selecting thermodynamics package 
{
    type            heRhoThermo;
    mixture         pureMixture;
    transport       const;
    thermo          hConst;
    equationOfState perfectGas;
    specie          specie;
    energy          sensibleInternalEnergy;
}

Reading thermophysical properties


Reading g

Reading hRef
Calculating field g.h

Selecting turbulence model type laminar
Selecting laminar stress model Stokes
Creating field kinetic energy K

No MRF models present

No finite volume options present

Courant Number mean: 0 max: 0

Starting time loop

Courant Number mean: 0 max: 0
Interface Courant Number mean: 0 max: 0
deltaT = 0.00012048193
Time = 0.0001204819277

PIMPLE: iteration 1
MULES: Solving for alpha.water
Phase-1 volume fraction = 0.48375  Min(alpha.water) = 0  Max(alpha.water) = 1
MULES: Solving for alpha.water
Phase-1 volume fraction = 0.48375  Min(alpha.water) = 0  Max(alpha.water) = 1
smoothSolver:  Solving for T, Initial residual = 4.4363636e-08, Final residual = 4.0764964e-15, No Iterations 1
GAMG:  Solving for p_rgh, Initial residual = 0.30097285, Final residual = 0.00049130781, No Iterations 2
GAMGPCG:  Solving for p_rgh, Initial residual = 4.6076036e-05, Final residual = 2.1033099e-08, No Iterations 3
ExecutionTime = 0.12 s


Courant Number mean: 0.00073816439 max: 0.0084676648
Interface Courant Number mean: 0 max: 0
deltaT = 0.00014528703
Time = 0.0002657689582

PIMPLE: iteration 1
MULES: Solving for alpha.water
Phase-1 volume fraction = 0.48375  Min(alpha.water) = 0  Max(alpha.water) = 1
MULES: Solving for alpha.water
Phase-1 volume fraction = 0.48375  Min(alpha.water) = -1.230629e-22  Max(alpha.water) = 1
smoothSolver:  Solving for T, Initial residual = 1.3271998e-05, Final residual = 3.6223646e-11, No Iterations 1
GAMG:  Solving for p_rgh, Initial residual = 6.3603873e-05, Final residual = 1.3431724e-07, No Iterations 3
GAMGPCG:  Solving for p_rgh, Initial residual = 2.2741932e-06, Final residual = 8.5768447e-08, No Iterations 1
ExecutionTime = 0.18 s


Courant Number mean: 0.0020862785 max: 0.026288366
Interface Courant Number mean: 0 max: 0
deltaT = 0.00017382555
Time = 0.0004395945125

PIMPLE: iteration 1
MULES: Solving for alpha.water
Phase-1 volume fraction = 0.48375228  Min(alpha.water) = -7.1180783e-22  Max(alpha.water) = 1
MULES: Solving for alpha.water
Phase-1 volume fraction = 0.48375338  Min(alpha.water) = -2.3557755e-21  Max(alpha.water) = 1
smoothSolver:  Solving for T, Initial residual = 4.5208201e-05, Final residual = 8.2838036e-10, No Iterations 1
GAMG:  Solving for p_rgh, Initial residual = 9.0788097e-05, Final residual = 7.4123544e-07, No Iterations 2
GAMGPCG:  Solving for p_rgh, Initial residual = 4.0601142e-06, Final residual = 1.3666458e-08, No Iterations 2
ExecutionTime = 0.24 s


Courant Number mean: 0.0043370338 max: 0.053593297
Interface Courant Number mean: 5.0649317e-05 max: 0.042320869
deltaT = 0.0002078349
Time = 0.0006474294144

PIMPLE: iteration 1
MULES: Solving for alpha.water
Phase-1 volume fraction = 0.48375734  Min(alpha.water) = -6.2192647e-21  Max(alpha.water) = 1
MULES: Solving for alpha.water
Phase-1 volume fraction = 0.48375982  Min(alpha.water) = -1.1268061e-20  Max(alpha.water) = 1
smoothSolver:  Solving for T, Initial residual = 0.00016523171, Final residual = 8.1641859e-09, No Iterations 1
GAMG:  Solving for p_rgh, Initial residual = 0.00019366476, Final residual = 1.4493622e-06, No Iterations 2
GAMGPCG:  Solving for p_rgh, Initial residual = 6.563984e-06, Final residual = 2.0079451e-08, No Iterations 2
ExecutionTime = 0.31 s


Courant Number mean: 0.0080141537 max: 0.11931154
Interface Courant Number mean: 0.00023090972 max: 0.074023332
deltaT = 0.00024612028
Time = 0.000893549693

PIMPLE: iteration 1
MULES: Solving for alpha.water
Phase-1 volume fraction = 0.48376544  Min(alpha.water) = -2.6684564e-20  Max(alpha.water) = 1
MULES: Solving for alpha.water
Phase-1 volume fraction = 0.48376924  Min(alpha.water) = -5.5666392e-20  Max(alpha.water) = 1
smoothSolver:  Solving for T, Initial residual = 0.00032489263, Final residual = 3.6779436e-11, No Iterations 2
GAMG:  Solving for p_rgh, Initial residual = 0.00038412497, Final residual = 2.5203593e-06, No Iterations 2
GAMGPCG:  Solving for p_rgh, Initial residual = 1.1231857e-05, Final residual = 3.6250058e-08, No Iterations 2
ExecutionTime = 0.37 s


Courant Number mean: 0.013585216 max: 0.17442707
Interface Courant Number mean: 0.00039956653 max: 0.1605668
deltaT = 0.00029375646
Time = 0.001187306154

PIMPLE: iteration 1
MULES: Solving for alpha.water
Phase-1 volume fraction = 0.48377616  Min(alpha.water) = -1.5288483e-19  Max(alpha.water) = 1
MULES: Solving for alpha.water
Phase-1 volume fraction = 0.48378159  Min(alpha.water) = -1.5325035e-19  Max(alpha.water) = 1
smoothSolver:  Solving for T, Initial residual = 0.00038043678, Final residual = 4.1688946e-10, No Iterations 2
GAMG:  Solving for p_rgh, Initial residual = 0.00074114781, Final residual = 5.3301e-06, No Iterations 2
GAMGPCG:  Solving for p_rgh, Initial residual = 2.101563e-05, Final residual = 1.6803955e-08, No Iterations 3
ExecutionTime = 0.45 s


Courant Number mean: 0.022217372 max: 0.23542598
Interface Courant Number mean: 0.00059261432 max: 0.18270237
deltaT = 0.00035250775
Time = 0.001539813908

PIMPLE: iteration 1
MULES: Solving for alpha.water
Phase-1 volume fraction = 0.48378911  Min(alpha.water) = -3.0575174e-19  Max(alpha.water) = 1
MULES: Solving for alpha.water
Phase-1 volume fraction = 0.48379572  Min(alpha.water) = -7.6002209e-19  Max(alpha.water) = 1
smoothSolver:  Solving for T, Initial residual = 0.00053143273, Final residual = 3.0335048e-09, No Iterations 2
GAMG:  Solving for p_rgh, Initial residual = 0.0013798471, Final residual = 8.5093449e-06, No Iterations 2
GAMGPCG:  Solving for p_rgh, Initial residual = 3.6666046e-05, Final residual = 3.8608083e-08, No Iterations 3
ExecutionTime = 0.54 s


Courant Number mean: 0.035958433 max: 0.34344369
Interface Courant Number mean: 0.00098042452 max: 0.27257117
deltaT = 0.000402866
Time = 0.001942679913

PIMPLE: iteration 1
MULES: Solving for alpha.water
Phase-1 volume fraction = 0.48380187  Min(alpha.water) = -8.7308209e-19  Max(alpha.water) = 1
MULES: Solving for alpha.water
Phase-1 volume fraction = 0.48380813  Min(alpha.water) = -6.9948508e-19  Max(alpha.water) = 1
smoothSolver:  Solving for T, Initial residual = 0.00058912716, Final residual = 1.3908505e-10, No Iterations 3
GAMG:  Solving for p_rgh, Initial residual = 0.0024082081, Final residual = 1.4400712e-05, No Iterations 2
GAMGPCG:  Solving for p_rgh, Initial residual = 6.2459616e-05, Final residual = 8.5130642e-08, No Iterations 3
ExecutionTime = 0.61 s


Courant Number mean: 0.053793505 max: 0.45610902
Interface Courant Number mean: 0.00140274 max: 0.37342945
deltaT = 0.00044762889
Time = 0.002390308806

PIMPLE: iteration 1
MULES: Solving for alpha.water
Phase-1 volume fraction = 0.48381152  Min(alpha.water) = -1.5530252e-18  Max(alpha.water) = 1
MULES: Solving for alpha.water
Phase-1 volume fraction = 0.48381564  Min(alpha.water) = -1.5520295e-18  Max(alpha.water) = 1
smoothSolver:  Solving for T, Initial residual = 0.00085206767, Final residual = 9.2002834e-10, No Iterations 3
GAMG:  Solving for p_rgh, Initial residual = 0.0039000615, Final residual = 2.793504e-05, No Iterations 2
GAMGPCG:  Solving for p_rgh, Initial residual = 9.5862474e-05, Final residual = 3.4623496e-08, No Iterations 4
ExecutionTime = 0.71 s


Courant Number mean: 0.075210703 max: 0.55770797
Interface Courant Number mean: 0.0021723313 max: 0.48029527
deltaT = 0.00040051006
Time = 0.002790818869

PIMPLE: iteration 1
MULES: Solving for alpha.water
Phase-1 volume fraction = 0.48381635  Min(alpha.water) = -1.0077013e-18  Max(alpha.water) = 1
MULES: Solving for alpha.water
Phase-1 volume fraction = 0.48381654  Min(alpha.water) = -1.0359059e-18  Max(alpha.water) = 1
smoothSolver:  Solving for T, Initial residual = 0.00083680275, Final residual = 1.38422e-09, No Iterations 3
GAMG:  Solving for p_rgh, Initial residual = 0.0037220061, Final residual = 1.3079113e-05, No Iterations 2
GAMGPCG:  Solving for p_rgh, Initial residual = 8.0664043e-05, Final residual = 4.3908725e-08, No Iterations 4
ExecutionTime = 0.79 s


Courant Number mean: 0.079086924 max: 0.52343022
Interface Courant Number mean: 0.0021675147 max: 0.41651759
deltaT = 0.00037943059
Time = 0.003170249455

PIMPLE: iteration 1
MULES: Solving for alpha.water
Phase-1 volume fraction = 0.4838187  Min(alpha.water) = -6.0575011e-19  Max(alpha.water) = 1
MULES: Solving for alpha.water
Phase-1 volume fraction = 0.48381908  Min(alpha.water) = -5.2032369e-19  Max(alpha.water) = 1
smoothSolver:  Solving for T, Initial residual = 0.00085681808, Final residual = 2.0976801e-09, No Iterations 3
GAMG:  Solving for p_rgh, Initial residual = 0.00239557, Final residual = 1.2695155e-05, No Iterations 2
GAMGPCG:  Solving for p_rgh, Initial residual = 9.1427186e-05, Final residual = 3.2009664e-08, No Iterations 4
ExecutionTime = 0.88 s


Courant Number mean: 0.084344589 max: 0.50662817
Interface Courant Number mean: 0.0021950038 max: 0.42652786
deltaT = 0.00037943059
Time = 0.003549680041

PIMPLE: iteration 1
MULES: Solving for alpha.water
Phase-1 volume fraction = 0.48382258  Min(alpha.water) = -1.3365634e-18  Max(alpha.water) = 1
MULES: Solving for alpha.water
Phase-1 volume fraction = 0.48382287  Min(alpha.water) = -2.6144702e-18  Max(alpha.water) = 1
smoothSolver:  Solving for T, Initial residual = 0.00086421193, Final residual = 2.3109992e-09, No Iterations 3
GAMG:  Solving for p_rgh, Initial residual = 0.0020227781, Final residual = 1.5674598e-05, No Iterations 2
GAMGPCG:  Solving for p_rgh, Initial residual = 0.00010381982, Final residual = 3.2516343e-08, No Iterations 4
ExecutionTime = 0.97 s


Courant Number mean: 0.092355621 max: 0.54125472
Interface Courant Number mean: 0.003180359 max: 0.46646264
deltaT = 0.00035835111
Time = 0.00390803115

PIMPLE: iteration 1
MULES: Solving for alpha.water
Phase-1 volume fraction = 0.48382631  Min(alpha.water) = -7.1393794e-19  Max(alpha.water) = 1
MULES: Solving for alpha.water
Phase-1 volume fraction = 0.48382637  Min(alpha.water) = -4.9333341e-18  Max(alpha.water) = 1
smoothSolver:  Solving for T, Initial residual = 0.00078744396, Final residual = 1.7004062e-09, No Iterations 3
GAMG:  Solving for p_rgh, Initial residual = 0.0023096758, Final residual = 1.2204627e-05, No Iterations 2
GAMGPCG:  Solving for p_rgh, Initial residual = 9.1125079e-05, Final residual = 2.2762473e-08, No Iterations 4
ExecutionTime = 1.11 s


Courant Number mean: 0.093593082 max: 0.53979116
Interface Courant Number mean: 0.0034230138 max: 0.40580144
deltaT = 0.00033844271
Time = 0.004246473864

PIMPLE: iteration 1
MULES: Solving for alpha.water
Phase-1 volume fraction = 0.48383023  Min(alpha.water) = -8.2360239e-19  Max(alpha.water) = 1
MULES: Solving for alpha.water
Phase-1 volume fraction = 0.48383065  Min(alpha.water) = -4.5854899e-18  Max(alpha.water) = 1
smoothSolver:  Solving for T, Initial residual = 0.00074825627, Final residual = 1.7486293e-09, No Iterations 3
GAMG:  Solving for p_rgh, Initial residual = 0.0028025014, Final residual = 8.3371859e-06, No Iterations 2
GAMGPCG:  Solving for p_rgh, Initial residual = 8.4315059e-05, Final residual = 9.5163217e-08, No Iterations 3
ExecutionTime = 1.23 s


Courant Number mean: 0.093178441 max: 0.51201791
Interface Courant Number mean: 0.0034427432 max: 0.41923927
deltaT = 0.00033844271
Time = 0.004584916578

PIMPLE: iteration 1
MULES: Solving for alpha.water
Phase-1 volume fraction = 0.48383524  Min(alpha.water) = -4.7360271e-18  Max(alpha.water) = 1
MULES: Solving for alpha.water
Phase-1 volume fraction = 0.4838361  Min(alpha.water) = -4.5854762e-18  Max(alpha.water) = 1
smoothSolver:  Solving for T, Initial residual = 0.00073214645, Final residual = 1.6235485e-09, No Iterations 3
GAMG:  Solving for p_rgh, Initial residual = 0.0034415169, Final residual = 7.8062928e-06, No Iterations 2
GAMGPCG:  Solving for p_rgh, Initial residual = 8.9212984e-05, Final residual = 1.2019212e-08, No Iterations 4
ExecutionTime = 1.34 s


Courant Number mean: 0.096912325 max: 0.49507749
Interface Courant Number mean: 0.0036484912 max: 0.44340564
deltaT = 0.00033844271
Time = 0.004923359291

PIMPLE: iteration 1
MULES: Solving for alpha.water
Phase-1 volume fraction = 0.48384104  Min(alpha.water) = -4.5854764e-18  Max(alpha.water) = 1
MULES: Solving for alpha.water
Phase-1 volume fraction = 0.4838421  Min(alpha.water) = -9.1181199e-18  Max(alpha.water) = 1
smoothSolver:  Solving for T, Initial residual = 0.0006961527, Final residual = 1.9677808e-09, No Iterations 3
GAMG:  Solving for p_rgh, Initial residual = 0.0042532222, Final residual = 5.7380403e-06, No Iterations 2
GAMGPCG:  Solving for p_rgh, Initial residual = 9.4422209e-05, Final residual = 1.1179611e-08, No Iterations 4
ExecutionTime = 1.42 s


Courant Number mean: 0.09989067 max: 0.52271028
Interface Courant Number mean: 0.0034376719 max: 0.41487052
deltaT = 0.00031729004
Time = 0.005240649336

PIMPLE: iteration 1
MULES: Solving for alpha.water
Phase-1 volume fraction = 0.4838468  Min(alpha.water) = -9.4856006e-18  Max(alpha.water) = 1
MULES: Solving for alpha.water
Phase-1 volume fraction = 0.48384768  Min(alpha.water) = -9.7715652e-18  Max(alpha.water) = 1
smoothSolver:  Solving for T, Initial residual = 0.00062332385, Final residual = 1.4739483e-09, No Iterations 3
GAMG:  Solving for p_rgh, Initial residual = 0.0044768666, Final residual = 3.8948904e-05, No Iterations 1
GAMGPCG:  Solving for p_rgh, Initial residual = 0.00010369452, Final residual = 9.9898732e-08, No Iterations 3
ExecutionTime = 1.5 s


Courant Number mean: 0.095658692 max: 0.49779659
Interface Courant Number mean: 0.0031452735 max: 0.41210183
deltaT = 0.00031729004
Time = 0.00555793938

PIMPLE: iteration 1
MULES: Solving for alpha.water
Phase-1 volume fraction = 0.48385255  Min(alpha.water) = -1.0000157e-17  Max(alpha.water) = 1
MULES: Solving for alpha.water
Phase-1 volume fraction = 0.48385332  Min(alpha.water) = -8.7294996e-18  Max(alpha.water) = 1
smoothSolver:  Solving for T, Initial residual = 0.00059236223, Final residual = 1.4120647e-09, No Iterations 3
GAMG:  Solving for p_rgh, Initial residual = 0.0040701194, Final residual = 3.8046064e-05, No Iterations 1
GAMGPCG:  Solving for p_rgh, Initial residual = 0.00011424189, Final residual = 9.5164954e-08, No Iterations 3
ExecutionTime = 1.58 s


Courant Number mean: 0.097206063 max: 0.48560808
Interface Courant Number mean: 0.0031567264 max: 0.42688159
deltaT = 0.00031729004
Time = 0.005875229424

PIMPLE: iteration 1
MULES: Solving for alpha.water
Phase-1 volume fraction = 0.48385802  Min(alpha.water) = -6.6024058e-18  Max(alpha.water) = 1
MULES: Solving for alpha.water
Phase-1 volume fraction = 0.48385834  Min(alpha.water) = -4.2159931e-18  Max(alpha.water) = 1
smoothSolver:  Solving for T, Initial residual = 0.00056123001, Final residual = 1.4091001e-09, No Iterations 3
GAMG:  Solving for p_rgh, Initial residual = 0.0034184418, Final residual = 1.1028663e-05, No Iterations 2
GAMGPCG:  Solving for p_rgh, Initial residual = 0.00011009288, Final residual = 8.0241677e-08, No Iterations 3
ExecutionTime = 1.66 s


Courant Number mean: 0.098583345 max: 0.48266655
Interface Courant Number mean: 0.0034556705 max: 0.40729235
deltaT = 0.00031729004
Time = 0.006192519469

PIMPLE: iteration 1
MULES: Solving for alpha.water
Phase-1 volume fraction = 0.48386328  Min(alpha.water) = -8.6315998e-19  Max(alpha.water) = 1
MULES: Solving for alpha.water
Phase-1 volume fraction = 0.48386349  Min(alpha.water) = -1.0925505e-18  Max(alpha.water) = 1
smoothSolver:  Solving for T, Initial residual = 0.00053116828, Final residual = 1.0447917e-09, No Iterations 3
GAMG:  Solving for p_rgh, Initial residual = 0.0038890345, Final residual = 1.0611468e-05, No Iterations 2
GAMGPCG:  Solving for p_rgh, Initial residual = 0.00011239524, Final residual = 7.579616e-08, No Iterations 3
ExecutionTime = 1.73 s


Courant Number mean: 0.10001626 max: 0.48839575
Interface Courant Number mean: 0.0042045792 max: 0.41945117
deltaT = 0.00031729004
Time = 0.006509809513

PIMPLE: iteration 1
MULES: Solving for alpha.water
Phase-1 volume fraction = 0.48386869  Min(alpha.water) = -3.3112312e-18  Max(alpha.water) = 1
MULES: Solving for alpha.water
Phase-1 volume fraction = 0.48386946  Min(alpha.water) = -1.113804e-18  Max(alpha.water) = 1
smoothSolver:  Solving for T, Initial residual = 0.0004981821, Final residual = 1.022599e-09, No Iterations 3
GAMG:  Solving for p_rgh, Initial residual = 0.0048760246, Final residual = 1.2102567e-05, No Iterations 2
GAMGPCG:  Solving for p_rgh, Initial residual = 0.00011876485, Final residual = 6.9976411e-08, No Iterations 3
ExecutionTime = 1.81 s


Courant Number mean: 0.10167992 max: 0.47704399
Interface Courant Number mean: 0.0040346165 max: 0.4275605
deltaT = 0.00034901905
Time = 0.006858828562

PIMPLE: iteration 1
MULES: Solving for alpha.water
Phase-1 volume fraction = 0.48387549  Min(alpha.water) = -1.0476467e-18  Max(alpha.water) = 1
MULES: Solving for alpha.water
Phase-1 volume fraction = 0.48387646  Min(alpha.water) = -1.2124095e-18  Max(alpha.water) = 1
smoothSolver:  Solving for T, Initial residual = 0.00051609821, Final residual = 1.6180216e-09, No Iterations 3
GAMG:  Solving for p_rgh, Initial residual = 0.0074353248, Final residual = 1.6325835e-05, No Iterations 2
GAMGPCG:  Solving for p_rgh, Initial residual = 0.00015690487, Final residual = 9.6292845e-08, No Iterations 3
ExecutionTime = 1.88 s


Courant Number mean: 0.11411081 max: 0.51207716
Interface Courant Number mean: 0.0039731313 max: 0.46060161
deltaT = 0.00034901905
Time = 0.00720784761

PIMPLE: iteration 1
MULES: Solving for alpha.water
Phase-1 volume fraction = 0.4838829  Min(alpha.water) = -1.3848098e-18  Max(alpha.water) = 1
MULES: Solving for alpha.water
Phase-1 volume fraction = 0.48388392  Min(alpha.water) = -2.2452783e-18  Max(alpha.water) = 1
smoothSolver:  Solving for T, Initial residual = 0.00049217744, Final residual = 1.2290364e-09, No Iterations 3
GAMG:  Solving for p_rgh, Initial residual = 0.0080336154, Final residual = 2.3425059e-05, No Iterations 2
GAMGPCG:  Solving for p_rgh, Initial residual = 0.00017821738, Final residual = 1.4204874e-08, No Iterations 4
ExecutionTime = 1.96 s


Courant Number mean: 0.11655489 max: 0.50626486
Interface Courant Number mean: 0.0037782239 max: 0.46364195
deltaT = 0.00034901905
Time = 0.007556866659

PIMPLE: iteration 1
MULES: Solving for alpha.water
Phase-1 volume fraction = 0.48388997  Min(alpha.water) = -9.7059814e-18  Max(alpha.water) = 1
MULES: Solving for alpha.water
Phase-1 volume fraction = 0.48389048  Min(alpha.water) = -2.4311797e-18  Max(alpha.water) = 1
smoothSolver:  Solving for T, Initial residual = 0.00047365463, Final residual = 1.2192336e-09, No Iterations 3
GAMG:  Solving for p_rgh, Initial residual = 0.0078948396, Final residual = 2.5263969e-05, No Iterations 2
GAMGPCG:  Solving for p_rgh, Initial residual = 0.00019218232, Final residual = 1.5062475e-08, No Iterations 4
ExecutionTime = 2.04 s


Courant Number mean: 0.11920019 max: 0.50065708
Interface Courant Number mean: 0.0040467075 max: 0.46706131
deltaT = 0.00034901905
Time = 0.007905885708

PIMPLE: iteration 1
MULES: Solving for alpha.water
Phase-1 volume fraction = 0.48389699  Min(alpha.water) = -2.4197335e-18  Max(alpha.water) = 1
MULES: Solving for alpha.water
Phase-1 volume fraction = 0.48389748  Min(alpha.water) = -1.2503006e-18  Max(alpha.water) = 1
smoothSolver:  Solving for T, Initial residual = 0.00045212103, Final residual = 1.03439e-09, No Iterations 3
GAMG:  Solving for p_rgh, Initial residual = 0.0076800581, Final residual = 2.266754e-05, No Iterations 2
GAMGPCG:  Solving for p_rgh, Initial residual = 0.00019929614, Final residual = 1.4303355e-08, No Iterations 4
ExecutionTime = 2.11 s


Courant Number mean: 0.12204597 max: 0.4926498
Interface Courant Number mean: 0.0046886573 max: 0.46624174
deltaT = 0.00034901905
Time = 0.008254904756

PIMPLE: iteration 1
MULES: Solving for alpha.water
Phase-1 volume fraction = 0.48390393  Min(alpha.water) = -1.2131308e-18  Max(alpha.water) = 1
MULES: Solving for alpha.water
Phase-1 volume fraction = 0.48390463  Min(alpha.water) = -2.4220671e-18  Max(alpha.water) = 1
smoothSolver:  Solving for T, Initial residual = 0.00043133117, Final residual = 1.1035203e-09, No Iterations 3
GAMG:  Solving for p_rgh, Initial residual = 0.0087210371, Final residual = 5.9726005e-05, No Iterations 1
GAMGPCG:  Solving for p_rgh, Initial residual = 0.00020910521, Final residual = 1.6042089e-08, No Iterations 4
ExecutionTime = 2.19 s


Courant Number mean: 0.12512672 max: 0.48470548
Interface Courant Number mean: 0.0047135067 max: 0.47174689
deltaT = 0.00034901905
Time = 0.008603923805

PIMPLE: iteration 1
MULES: Solving for alpha.water
Phase-1 volume fraction = 0.48391125  Min(alpha.water) = -4.8468168e-18  Max(alpha.water) = 1
MULES: Solving for alpha.water
Phase-1 volume fraction = 0.48391207  Min(alpha.water) = -2.1486251e-18  Max(alpha.water) = 1
smoothSolver:  Solving for T, Initial residual = 0.00040544778, Final residual = 9.4556785e-10, No Iterations 3
GAMG:  Solving for p_rgh, Initial residual = 0.011903624, Final residual = 5.2996537e-05, No Iterations 1
GAMGPCG:  Solving for p_rgh, Initial residual = 0.00021077051, Final residual = 2.8683403e-08, No Iterations 4
ExecutionTime = 2.27 s


Courant Number mean: 0.12818524 max: 0.47923319
Interface Courant Number mean: 0.0044895335 max: 0.4707267
deltaT = 0.00034901905
Time = 0.008952942854

PIMPLE: iteration 1
MULES: Solving for alpha.water
Phase-1 volume fraction = 0.48391859  Min(alpha.water) = -4.8382278e-18  Max(alpha.water) = 1
MULES: Solving for alpha.water
Phase-1 volume fraction = 0.48391921  Min(alpha.water) = -2.2116178e-18  Max(alpha.water) = 1
smoothSolver:  Solving for T, Initial residual = 0.00040167671, Final residual = 9.7162169e-10, No Iterations 3
GAMG:  Solving for p_rgh, Initial residual = 0.011330266, Final residual = 5.830333e-05, No Iterations 1
GAMGPCG:  Solving for p_rgh, Initial residual = 0.00024194881, Final residual = 2.0803289e-08, No Iterations 4
ExecutionTime = 2.35 s


Courant Number mean: 0.13089029 max: 0.47289324
Interface Courant Number mean: 0.0044426938 max: 0.47289324
deltaT = 0.00034901905
Time = 0.009301961903

PIMPLE: iteration 1
MULES: Solving for alpha.water
Phase-1 volume fraction = 0.48392593  Min(alpha.water) = -4.844923e-18  Max(alpha.water) = 1
MULES: Solving for alpha.water
Phase-1 volume fraction = 0.48392664  Min(alpha.water) = -2.2760988e-18  Max(alpha.water) = 1
smoothSolver:  Solving for T, Initial residual = 0.00037957913, Final residual = 8.1715505e-10, No Iterations 3
GAMG:  Solving for p_rgh, Initial residual = 0.013011476, Final residual = 9.9496338e-05, No Iterations 1
GAMGPCG:  Solving for p_rgh, Initial residual = 0.00030078188, Final residual = 3.0106044e-08, No Iterations 4
ExecutionTime = 2.43 s


Courant Number mean: 0.13323379 max: 0.4721004
Interface Courant Number mean: 0.004734667 max: 0.4721004
deltaT = 0.00034901905
Time = 0.009650980951

PIMPLE: iteration 1
MULES: Solving for alpha.water
Phase-1 volume fraction = 0.48393362  Min(alpha.water) = -9.6890744e-18  Max(alpha.water) = 1
MULES: Solving for alpha.water
Phase-1 volume fraction = 0.48393447  Min(alpha.water) = -4.5337386e-18  Max(alpha.water) = 1
smoothSolver:  Solving for T, Initial residual = 0.00036539975, Final residual = 8.7920464e-10, No Iterations 3
GAMG:  Solving for p_rgh, Initial residual = 0.013619353, Final residual = 2.5682098e-05, No Iterations 2
GAMGPCG:  Solving for p_rgh, Initial residual = 0.0002584282, Final residual = 3.0614728e-08, No Iterations 4
ExecutionTime = 2.51 s


Courant Number mean: 0.13511432 max: 0.4716863
Interface Courant Number mean: 0.0048044645 max: 0.4716863
deltaT = 0.00034901905
Time = 0.01

PIMPLE: iteration 1
MULES: Solving for alpha.water
Phase-1 volume fraction = 0.48394089  Min(alpha.water) = -4.5070881e-18  Max(alpha.water) = 1
MULES: Solving for alpha.water
Phase-1 volume fraction = 0.48394165  Min(alpha.water) = -4.4800028e-18  Max(alpha.water) = 1
smoothSolver:  Solving for T, Initial residual = 0.00035631768, Final residual = 8.4919411e-10, No Iterations 3
GAMG:  Solving for p_rgh, Initial residual = 0.015583986, Final residual = 3.7053844e-05, No Iterations 2
GAMGPCG:  Solving for p_rgh, Initial residual = 0.00028501636, Final residual = 2.5726577e-08, No Iterations 4
ExecutionTime = 2.59 s


Courant Number mean: 0.13663789 max: 0.47165516
Interface Courant Number mean: 0.0051655651 max: 0.47165516
deltaT = 0.00037037037
Time = 0.01037037037

PIMPLE: iteration 1
MULES: Solving for alpha.water
Phase-1 volume fraction = 0.48394951  Min(alpha.water) = -5.1367826e-18  Max(alpha.water) = 1
MULES: Solving for alpha.water
Phase-1 volume fraction = 0.48395071  Min(alpha.water) = -9.8394908e-18  Max(alpha.water) = 1
smoothSolver:  Solving for T, Initial residual = 0.0003660307, Final residual = 1.1942725e-09, No Iterations 3
GAMG:  Solving for p_rgh, Initial residual = 0.017361791, Final residual = 5.165678e-05, No Iterations 2
GAMGPCG:  Solving for p_rgh, Initial residual = 0.00035487739, Final residual = 2.4734116e-08, No Iterations 4
ExecutionTime = 2.68 s


Courant Number mean: 0.14612793 max: 0.49931627
Interface Courant Number mean: 0.0051203593 max: 0.49931627
deltaT = 0.00037037037
Time = 0.01074074074

PIMPLE: iteration 1
MULES: Solving for alpha.water
Phase-1 volume fraction = 0.48395765  Min(alpha.water) = -8.9661549e-18  Max(alpha.water) = 1
MULES: Solving for alpha.water
Phase-1 volume fraction = 0.4839582  Min(alpha.water) = -8.1489011e-18  Max(alpha.water) = 1
smoothSolver:  Solving for T, Initial residual = 0.00035040523, Final residual = 1.1033468e-09, No Iterations 3
GAMG:  Solving for p_rgh, Initial residual = 0.020313912, Final residual = 5.7344403e-05, No Iterations 2
GAMGPCG:  Solving for p_rgh, Initial residual = 0.00036759775, Final residual = 2.6210238e-08, No Iterations 4
ExecutionTime = 2.78 s


Courant Number mean: 0.1468335 max: 0.49956573
Interface Courant Number mean: 0.0054843558 max: 0.49956573
deltaT = 0.00037037037
Time = 0.01111111111

PIMPLE: iteration 1
MULES: Solving for alpha.water
Phase-1 volume fraction = 0.48396619  Min(alpha.water) = -7.4845441e-18  Max(alpha.water) = 1
MULES: Solving for alpha.water
Phase-1 volume fraction = 0.48396754  Min(alpha.water) = -4.7255074e-18  Max(alpha.water) = 1
smoothSolver:  Solving for T, Initial residual = 0.00033544361, Final residual = 1.0436717e-09, No Iterations 3
GAMG:  Solving for p_rgh, Initial residual = 0.023890464, Final residual = 5.3547524e-05, No Iterations 2
GAMGPCG:  Solving for p_rgh, Initial residual = 0.00038510296, Final residual = 2.6931988e-08, No Iterations 4
ExecutionTime = 2.92 s


Courant Number mean: 0.14723969 max: 0.4968076
Interface Courant Number mean: 0.0052020962 max: 0.4968076
deltaT = 0.00037037037
Time = 0.01148148148

PIMPLE: iteration 1
MULES: Solving for alpha.water
Phase-1 volume fraction = 0.48397432  Min(alpha.water) = -3.4952444e-18  Max(alpha.water) = 1
MULES: Solving for alpha.water
Phase-1 volume fraction = 0.4839746  Min(alpha.water) = -3.2501096e-18  Max(alpha.water) = 1
smoothSolver:  Solving for T, Initial residual = 0.00032837004, Final residual = 1.1247259e-09, No Iterations 3
GAMG:  Solving for p_rgh, Initial residual = 0.025201981, Final residual = 0.00016905994, No Iterations 1
GAMGPCG:  Solving for p_rgh, Initial residual = 0.00048011792, Final residual = 7.6936843e-08, No Iterations 4
ExecutionTime = 3.06 s


Courant Number mean: 0.14750478 max: 0.4965201
Interface Courant Number mean: 0.0049597438 max: 0.4965201
deltaT = 0.00037037037
Time = 0.01185185185

PIMPLE: iteration 1
MULES: Solving for alpha.water
Phase-1 volume fraction = 0.48398208  Min(alpha.water) = -2.5699459e-18  Max(alpha.water) = 1
MULES: Solving for alpha.water
Phase-1 volume fraction = 0.48398296  Min(alpha.water) = -4.9048922e-18  Max(alpha.water) = 1
smoothSolver:  Solving for T, Initial residual = 0.00033229935, Final residual = 1.0369986e-09, No Iterations 3
GAMG:  Solving for p_rgh, Initial residual = 0.025868446, Final residual = 0.00016399974, No Iterations 1
GAMGPCG:  Solving for p_rgh, Initial residual = 0.00049668959, Final residual = 6.3362993e-08, No Iterations 4
ExecutionTime = 3.15 s


Courant Number mean: 0.14779998 max: 0.49285945
Interface Courant Number mean: 0.0054512457 max: 0.49285945
deltaT = 0.00037037037
Time = 0.01222222222

PIMPLE: iteration 1
MULES: Solving for alpha.water
Phase-1 volume fraction = 0.48399015  Min(alpha.water) = -5.1382027e-18  Max(alpha.water) = 1
MULES: Solving for alpha.water
Phase-1 volume fraction = 0.48399072  Min(alpha.water) = -4.7908411e-18  Max(alpha.water) = 1
smoothSolver:  Solving for T, Initial residual = 0.00030680684, Final residual = 9.8431292e-10, No Iterations 3
GAMG:  Solving for p_rgh, Initial residual = 0.030014085, Final residual = 0.00023408239, No Iterations 1
GAMGPCG:  Solving for p_rgh, Initial residual = 0.00058147204, Final residual = 7.1077294e-08, No Iterations 4
ExecutionTime = 3.23 s


Courant Number mean: 0.14815049 max: 0.49194617
Interface Courant Number mean: 0.0057123302 max: 0.49194617
deltaT = 0.00037037037
Time = 0.01259259259

PIMPLE: iteration 1
MULES: Solving for alpha.water
Phase-1 volume fraction = 0.4839984  Min(alpha.water) = -1.0266537e-17  Max(alpha.water) = 1
MULES: Solving for alpha.water
Phase-1 volume fraction = 0.48399905  Min(alpha.water) = -2.8812458e-18  Max(alpha.water) = 1
smoothSolver:  Solving for T, Initial residual = 0.0002946764, Final residual = 9.2519098e-10, No Iterations 3
GAMG:  Solving for p_rgh, Initial residual = 0.036620408, Final residual = 0.00032329892, No Iterations 1
GAMGPCG:  Solving for p_rgh, Initial residual = 0.00069622422, Final residual = 6.6866127e-08, No Iterations 4
ExecutionTime = 3.32 s


Courant Number mean: 0.14862436 max: 0.48781139
Interface Courant Number mean: 0.0053595281 max: 0.48781139
deltaT = 0.00037037037
Time = 0.01296296296

PIMPLE: iteration 1
MULES: Solving for alpha.water
Phase-1 volume fraction = 0.48400611  Min(alpha.water) = -5.1390257e-18  Max(alpha.water) = 1
MULES: Solving for alpha.water
Phase-1 volume fraction = 0.48400631  Min(alpha.water) = -2.3107435e-18  Max(alpha.water) = 1
smoothSolver:  Solving for T, Initial residual = 0.00029300593, Final residual = 9.8356837e-10, No Iterations 3
GAMG:  Solving for p_rgh, Initial residual = 0.037618653, Final residual = 7.2889696e-05, No Iterations 2
GAMGPCG:  Solving for p_rgh, Initial residual = 0.00058483434, Final residual = 7.0980221e-08, No Iterations 4
ExecutionTime = 3.41 s


Courant Number mean: 0.14918601 max: 0.48678787
Interface Courant Number mean: 0.0051394865 max: 0.48678787
deltaT = 0.0003909465
Time = 0.01335390947

PIMPLE: iteration 1
MULES: Solving for alpha.water
Phase-1 volume fraction = 0.48401406  Min(alpha.water) = -1.4898318e-18  Max(alpha.water) = 1
MULES: Solving for alpha.water
Phase-1 volume fraction = 0.48401448  Min(alpha.water) = -2.5633825e-18  Max(alpha.water) = 1
smoothSolver:  Solving for T, Initial residual = 0.00032761519, Final residual = 1.2441752e-09, No Iterations 3
GAMG:  Solving for p_rgh, Initial residual = 0.041806932, Final residual = 0.000107252, No Iterations 2
GAMGPCG:  Solving for p_rgh, Initial residual = 0.00072651875, Final residual = 6.3409136e-08, No Iterations 4
ExecutionTime = 3.49 s


Courant Number mean: 0.15832435 max: 0.50888534
Interface Courant Number mean: 0.0062442702 max: 0.50888534
deltaT = 0.0003909465
Time = 0.01374485597

PIMPLE: iteration 1
MULES: Solving for alpha.water
Phase-1 volume fraction = 0.48402218  Min(alpha.water) = -5.4225382e-18  Max(alpha.water) = 1
MULES: Solving for alpha.water
Phase-1 volume fraction = 0.48402283  Min(alpha.water) = -1.7610921e-18  Max(alpha.water) = 1
smoothSolver:  Solving for T, Initial residual = 0.0002938269, Final residual = 1.2940416e-09, No Iterations 3
GAMG:  Solving for p_rgh, Initial residual = 0.051368772, Final residual = 9.1267572e-05, No Iterations 2
GAMGPCG:  Solving for p_rgh, Initial residual = 0.0007439102, Final residual = 6.0616895e-08, No Iterations 4
ExecutionTime = 3.57 s


Courant Number mean: 0.15933311 max: 0.50794042
Interface Courant Number mean: 0.0060634887 max: 0.50794042
deltaT = 0.0003909465
Time = 0.01413580247

PIMPLE: iteration 1
MULES: Solving for alpha.water
Phase-1 volume fraction = 0.48403071  Min(alpha.water) = -1.4848679e-18  Max(alpha.water) = 1
MULES: Solving for alpha.water
Phase-1 volume fraction = 0.48403109  Min(alpha.water) = -2.7133527e-18  Max(alpha.water) = 1
smoothSolver:  Solving for T, Initial residual = 0.00028208609, Final residual = 1.0721176e-09, No Iterations 3
GAMG:  Solving for p_rgh, Initial residual = 0.067862428, Final residual = 0.00055222183, No Iterations 1
GAMGPCG:  Solving for p_rgh, Initial residual = 0.0012124692, Final residual = 2.1099843e-08, No Iterations 5
ExecutionTime = 3.67 s


Courant Number mean: 0.16038748 max: 0.50288504
Interface Courant Number mean: 0.0055331069 max: 0.50288504
deltaT = 0.0003909465
Time = 0.01452674897

PIMPLE: iteration 1
MULES: Solving for alpha.water
Phase-1 volume fraction = 0.48403833  Min(alpha.water) = -5.4311036e-18  Max(alpha.water) = 1
MULES: Solving for alpha.water
Phase-1 volume fraction = 0.48403795  Min(alpha.water) = -4.940434e-18  Max(alpha.water) = 1
smoothSolver:  Solving for T, Initial residual = 0.0003065092, Final residual = 1.203563e-09, No Iterations 3
GAMG:  Solving for p_rgh, Initial residual = 0.063631964, Final residual = 0.00063228378, No Iterations 1
GAMGPCG:  Solving for p_rgh, Initial residual = 0.0014683548, Final residual = 1.8410244e-08, No Iterations 5
ExecutionTime = 3.76 s


Courant Number mean: 0.16104124 max: 0.5011447
Interface Courant Number mean: 0.005942534 max: 0.5011447
deltaT = 0.0003909465
Time = 0.01491769547

PIMPLE: iteration 1
MULES: Solving for alpha.water
Phase-1 volume fraction = 0.48404601  Min(alpha.water) = -1.0899019e-17  Max(alpha.water) = 1
MULES: Solving for alpha.water
Phase-1 volume fraction = 0.48404661  Min(alpha.water) = -1.5678933e-17  Max(alpha.water) = 1
smoothSolver:  Solving for T, Initial residual = 0.0002991019, Final residual = 9.7455314e-10, No Iterations 3
GAMG:  Solving for p_rgh, Initial residual = 0.07680575, Final residual = 0.00074361888, No Iterations 1
GAMGPCG:  Solving for p_rgh, Initial residual = 0.001667236, Final residual = 1.2327088e-08, No Iterations 5
ExecutionTime = 3.85 s


Courant Number mean: 0.16166313 max: 0.49600717
Interface Courant Number mean: 0.0063958344 max: 0.49600717
deltaT = 0.0003909465
Time = 0.01530864198

PIMPLE: iteration 1
MULES: Solving for alpha.water
Phase-1 volume fraction = 0.48405395  Min(alpha.water) = -1.5727308e-17  Max(alpha.water) = 1
MULES: Solving for alpha.water
Phase-1 volume fraction = 0.48405406  Min(alpha.water) = -1.3872066e-17  Max(alpha.water) = 1
smoothSolver:  Solving for T, Initial residual = 0.0002674517, Final residual = 1.0479732e-09, No Iterations 3
GAMG:  Solving for p_rgh, Initial residual = 0.094143167, Final residual = 0.00092592081, No Iterations 1
GAMGPCG:  Solving for p_rgh, Initial residual = 0.0019010036, Final residual = 1.7469774e-08, No Iterations 5
ExecutionTime = 3.95 s


Courant Number mean: 0.16202083 max: 0.49361367
Interface Courant Number mean: 0.0058389571 max: 0.49361367
deltaT = 0.0003909465
Time = 0.01569958848

PIMPLE: iteration 1
MULES: Solving for alpha.water
Phase-1 volume fraction = 0.48406194  Min(alpha.water) = -5.4448314e-18  Max(alpha.water) = 1
MULES: Solving for alpha.water
Phase-1 volume fraction = 0.48406219  Min(alpha.water) = -1.0491374e-17  Max(alpha.water) = 1
smoothSolver:  Solving for T, Initial residual = 0.00027217725, Final residual = 8.7983038e-10, No Iterations 3
GAMG:  Solving for p_rgh, Initial residual = 0.11172376, Final residual = 0.00019587585, No Iterations 2
GAMGPCG:  Solving for p_rgh, Initial residual = 0.0014057431, Final residual = 1.5137319e-08, No Iterations 5
ExecutionTime = 4.04 s


Courant Number mean: 0.1620314 max: 0.48834781
Interface Courant Number mean: 0.0057320984 max: 0.48834781
deltaT = 0.0003909465
Time = 0.01609053498

PIMPLE: iteration 1
MULES: Solving for alpha.water
Phase-1 volume fraction = 0.48406935  Min(alpha.water) = -5.314051e-18  Max(alpha.water) = 1
MULES: Solving for alpha.water
Phase-1 volume fraction = 0.48406938  Min(alpha.water) = -5.3247838e-18  Max(alpha.water) = 1
smoothSolver:  Solving for T, Initial residual = 0.000279965, Final residual = 8.7483455e-10, No Iterations 3
GAMG:  Solving for p_rgh, Initial residual = 0.11671623, Final residual = 0.00023296445, No Iterations 2
GAMGPCG:  Solving for p_rgh, Initial residual = 0.0015837253, Final residual = 1.947667e-08, No Iterations 5
ExecutionTime = 4.11 s


Courant Number mean: 0.16179509 max: 0.48539843
Interface Courant Number mean: 0.0059390954 max: 0.48539843
deltaT = 0.0003909465
Time = 0.01648148148

PIMPLE: iteration 1
MULES: Solving for alpha.water
Phase-1 volume fraction = 0.48407728  Min(alpha.water) = -5.0331098e-18  Max(alpha.water) = 1
MULES: Solving for alpha.water
Phase-1 volume fraction = 0.48407775  Min(alpha.water) = -4.3229951e-18  Max(alpha.water) = 1
smoothSolver:  Solving for T, Initial residual = 0.0002764852, Final residual = 7.5932589e-10, No Iterations 3
GAMG:  Solving for p_rgh, Initial residual = 0.14718549, Final residual = 0.00026326371, No Iterations 2
GAMGPCG:  Solving for p_rgh, Initial residual = 0.0018538887, Final residual = 1.7283171e-08, No Iterations 5
ExecutionTime = 4.2 s


Courant Number mean: 0.16138902 max: 0.47992229
Interface Courant Number mean: 0.0064164171 max: 0.47992229
deltaT = 0.0003909465
Time = 0.01687242798

PIMPLE: iteration 1
MULES: Solving for alpha.water
Phase-1 volume fraction = 0.48408529  Min(alpha.water) = -1.0862318e-17  Max(alpha.water) = 1
MULES: Solving for alpha.water
Phase-1 volume fraction = 0.48408541  Min(alpha.water) = -4.9931834e-18  Max(alpha.water) = 1
smoothSolver:  Solving for T, Initial residual = 0.00025129304, Final residual = 8.2999671e-10, No Iterations 3
GAMG:  Solving for p_rgh, Initial residual = 0.1566374, Final residual = 0.0014877023, No Iterations 1
GAMGPCG:  Solving for p_rgh, Initial residual = 0.003141904, Final residual = 4.3466375e-08, No Iterations 5
ExecutionTime = 4.29 s


Courant Number mean: 0.1609341 max: 0.47742049
Interface Courant Number mean: 0.0055622079 max: 0.47742049
deltaT = 0.0003909465
Time = 0.01726337449

PIMPLE: iteration 1
MULES: Solving for alpha.water
Phase-1 volume fraction = 0.48409216  Min(alpha.water) = -4.9931834e-18  Max(alpha.water) = 1
MULES: Solving for alpha.water
Phase-1 volume fraction = 0.48409179  Min(alpha.water) = -1.0167493e-17  Max(alpha.water) = 1
smoothSolver:  Solving for T, Initial residual = 0.00026834844, Final residual = 7.0751333e-10, No Iterations 3
GAMG:  Solving for p_rgh, Initial residual = 0.19363334, Final residual = 0.00038561685, No Iterations 2
GAMGPCG:  Solving for p_rgh, Initial residual = 0.0025694141, Final residual = 2.8163062e-08, No Iterations 5
ExecutionTime = 4.38 s


Courant Number mean: 0.16034808 max: 0.47147463
Interface Courant Number mean: 0.0059288283 max: 0.47147463
deltaT = 0.0003909465
Time = 0.01765432099

PIMPLE: iteration 1
MULES: Solving for alpha.water
Phase-1 volume fraction = 0.48409965  Min(alpha.water) = -9.672708e-18  Max(alpha.water) = 1
MULES: Solving for alpha.water
Phase-1 volume fraction = 0.48409981  Min(alpha.water) = -1.0362252e-17  Max(alpha.water) = 1
smoothSolver:  Solving for T, Initial residual = 0.00026052863, Final residual = 7.3212691e-10, No Iterations 3
GAMG:  Solving for p_rgh, Initial residual = 0.21505427, Final residual = 0.0020430156, No Iterations 1
GAMGPCG:  Solving for p_rgh, Initial residual = 0.0046626536, Final residual = 4.4972921e-08, No Iterations 5
ExecutionTime = 4.46 s


Courant Number mean: 0.1598997 max: 0.46929658
Interface Courant Number mean: 0.0061263825 max: 0.46929658
deltaT = 0.0003909465
Time = 0.01804526749

PIMPLE: iteration 1
MULES: Solving for alpha.water
Phase-1 volume fraction = 0.48410641  Min(alpha.water) = -8.765715e-18  Max(alpha.water) = 1
MULES: Solving for alpha.water
Phase-1 volume fraction = 0.48410584  Min(alpha.water) = -5.999933e-18  Max(alpha.water) = 1
smoothSolver:  Solving for T, Initial residual = 0.00025232722, Final residual = 5.8827911e-10, No Iterations 3
GAMG:  Solving for p_rgh, Initial residual = 0.28068739, Final residual = 0.0028006738, No Iterations 1
GAMGPCG:  Solving for p_rgh, Initial residual = 0.0052575419, Final residual = 3.3984996e-08, No Iterations 5
ExecutionTime = 4.55 s


Courant Number mean: 0.15963419 max: 0.46268758
Interface Courant Number mean: 0.0060380885 max: 0.46268758
deltaT = 0.0003909465
Time = 0.01843621399

PIMPLE: iteration 1
MULES: Solving for alpha.water
Phase-1 volume fraction = 0.48411381  Min(alpha.water) = -1.0927586e-17  Max(alpha.water) = 1
MULES: Solving for alpha.water
Phase-1 volume fraction = 0.48411411  Min(alpha.water) = -3.599826e-18  Max(alpha.water) = 1
smoothSolver:  Solving for T, Initial residual = 0.00026661521, Final residual = 6.3132481e-10, No Iterations 3
GAMG:  Solving for p_rgh, Initial residual = 0.28696346, Final residual = 0.00052933531, No Iterations 2
GAMGPCG:  Solving for p_rgh, Initial residual = 0.0025103348, Final residual = 2.4409199e-08, No Iterations 5
ExecutionTime = 4.64 s


Courant Number mean: 0.15926692 max: 0.46030685
Interface Courant Number mean: 0.0062560973 max: 0.46030685
deltaT = 0.0003909465
Time = 0.01882716049

PIMPLE: iteration 1
MULES: Solving for alpha.water
Phase-1 volume fraction = 0.48412058  Min(alpha.water) = -5.4722422e-18  Max(alpha.water) = 1
MULES: Solving for alpha.water
Phase-1 volume fraction = 0.48412039  Min(alpha.water) = -5.1672779e-18  Max(alpha.water) = 1
smoothSolver:  Solving for T, Initial residual = 0.00024982455, Final residual = 5.3641294e-10, No Iterations 3
GAMG:  Solving for p_rgh, Initial residual = 0.22590374, Final residual = 0.0020922316, No Iterations 1
GAMGPCG:  Solving for p_rgh, Initial residual = 0.0030549473, Final residual = 1.6544928e-08, No Iterations 5
ExecutionTime = 4.75 s


Courant Number mean: 0.15890419 max: 0.45340721
Interface Courant Number mean: 0.0060042486 max: 0.45340721
deltaT = 0.0003909465
Time = 0.019218107

PIMPLE: iteration 1
MULES: Solving for alpha.water
Phase-1 volume fraction = 0.48412778  Min(alpha.water) = -5.4722931e-18  Max(alpha.water) = 1
MULES: Solving for alpha.water
Phase-1 volume fraction = 0.48412798  Min(alpha.water) = -8.0867267e-19  Max(alpha.water) = 1
smoothSolver:  Solving for T, Initial residual = 0.00024909845, Final residual = 5.286884e-10, No Iterations 3
GAMG:  Solving for p_rgh, Initial residual = 0.18483017, Final residual = 0.0016637139, No Iterations 1
GAMGPCG:  Solving for p_rgh, Initial residual = 0.0026465924, Final residual = 2.3215917e-08, No Iterations 5
ExecutionTime = 4.84 s


Courant Number mean: 0.15854067 max: 0.4514582
Interface Courant Number mean: 0.0060732672 max: 0.4514582
deltaT = 0.0003909465
Time = 0.0196090535

PIMPLE: iteration 1
MULES: Solving for alpha.water
Phase-1 volume fraction = 0.48413487  Min(alpha.water) = -1.0959807e-17  Max(alpha.water) = 1
MULES: Solving for alpha.water
Phase-1 volume fraction = 0.48413473  Min(alpha.water) = -5.3237297e-18  Max(alpha.water) = 1
smoothSolver:  Solving for T, Initial residual = 0.00025025957, Final residual = 5.6486605e-10, No Iterations 3
GAMG:  Solving for p_rgh, Initial residual = 0.14174778, Final residual = 0.00025370477, No Iterations 2
GAMGPCG:  Solving for p_rgh, Initial residual = 0.0013854753, Final residual = 1.5526492e-08, No Iterations 5
ExecutionTime = 4.92 s


Courant Number mean: 0.15805872 max: 0.44403381
Interface Courant Number mean: 0.0061425914 max: 0.44403381
deltaT = 0.0003909465
Time = 0.02

PIMPLE: iteration 1
MULES: Solving for alpha.water
Phase-1 volume fraction = 0.48414142  Min(alpha.water) = -5.4792207e-18  Max(alpha.water) = 1
MULES: Solving for alpha.water
Phase-1 volume fraction = 0.48414125  Min(alpha.water) = -5.1108908e-18  Max(alpha.water) = 1
smoothSolver:  Solving for T, Initial residual = 0.00024503554, Final residual = 4.25425e-10, No Iterations 3
GAMG:  Solving for p_rgh, Initial residual = 0.13545154, Final residual = 0.00024127603, No Iterations 2
GAMGPCG:  Solving for p_rgh, Initial residual = 0.0012189497, Final residual = 1.1905534e-08, No Iterations 5
ExecutionTime = 5 s


Courant Number mean: 0.15765278 max: 0.44209983
Interface Courant Number mean: 0.0062073113 max: 0.44209983
deltaT = 0.00043478261
Time = 0.02043478261

PIMPLE: iteration 1
MULES: Solving for alpha.water
Phase-1 volume fraction = 0.48414988  Min(alpha.water) = -5.1108908e-18  Max(alpha.water) = 1
MULES: Solving for alpha.water
Phase-1 volume fraction = 0.48414967  Min(alpha.water) = -5.1108907e-18  Max(alpha.water) = 1
smoothSolver:  Solving for T, Initial residual = 0.0002659949, Final residual = 8.8409805e-10, No Iterations 3
GAMG:  Solving for p_rgh, Initial residual = 0.14307335, Final residual = 0.00027770939, No Iterations 2
GAMGPCG:  Solving for p_rgh, Initial residual = 0.0012590003, Final residual = 1.8047317e-08, No Iterations 5
ExecutionTime = 5.08 s


Courant Number mean: 0.17441864 max: 0.48378493
Interface Courant Number mean: 0.0067549925 max: 0.48378493
deltaT = 0.00045548654
Time = 0.02089026915

PIMPLE: iteration 1
MULES: Solving for alpha.water
Phase-1 volume fraction = 0.48415856  Min(alpha.water) = -6.3631906e-18  Max(alpha.water) = 1
MULES: Solving for alpha.water
Phase-1 volume fraction = 0.48415761  Min(alpha.water) = -1.1808867e-17  Max(alpha.water) = 1
smoothSolver:  Solving for T, Initial residual = 0.00030012118, Final residual = 8.8718058e-10, No Iterations 3
GAMG:  Solving for p_rgh, Initial residual = 0.14548118, Final residual = 0.00033158331, No Iterations 2
GAMGPCG:  Solving for p_rgh, Initial residual = 0.001403025, Final residual = 2.14581e-08, No Iterations 5
ExecutionTime = 5.15 s


Courant Number mean: 0.18165052 max: 0.50220077
Interface Courant Number mean: 0.007339393 max: 0.50220077
deltaT = 0.00045548654
Time = 0.02134575569

PIMPLE: iteration 1
MULES: Solving for alpha.water
Phase-1 volume fraction = 0.48416657  Min(alpha.water) = -1.1808867e-17  Max(alpha.water) = 1
MULES: Solving for alpha.water
Phase-1 volume fraction = 0.48416651  Min(alpha.water) = -6.231399e-18  Max(alpha.water) = 1
smoothSolver:  Solving for T, Initial residual = 0.0002977205, Final residual = 9.7749635e-10, No Iterations 3
GAMG:  Solving for p_rgh, Initial residual = 0.12868681, Final residual = 0.00023109133, No Iterations 2
GAMGPCG:  Solving for p_rgh, Initial residual = 0.0011481724, Final residual = 2.0655775e-08, No Iterations 5
ExecutionTime = 5.22 s


Courant Number mean: 0.18046148 max: 0.49281404
Interface Courant Number mean: 0.0074066335 max: 0.49281404
deltaT = 0.00045548654
Time = 0.02180124224

PIMPLE: iteration 1
MULES: Solving for alpha.water
Phase-1 volume fraction = 0.48417625  Min(alpha.water) = -5.4577563e-18  Max(alpha.water) = 1
MULES: Solving for alpha.water
Phase-1 volume fraction = 0.48417696  Min(alpha.water) = -1.1896795e-17  Max(alpha.water) = 1
smoothSolver:  Solving for T, Initial residual = 0.00027830389, Final residual = 7.8808247e-10, No Iterations 3
GAMG:  Solving for p_rgh, Initial residual = 0.13254461, Final residual = 0.0012313985, No Iterations 1
GAMGPCG:  Solving for p_rgh, Initial residual = 0.0018387326, Final residual = 1.7887504e-08, No Iterations 5
ExecutionTime = 5.28 s


Courant Number mean: 0.17938974 max: 0.48909568
Interface Courant Number mean: 0.0066366737 max: 0.48909568
deltaT = 0.00045548654
Time = 0.02225672878

PIMPLE: iteration 1
MULES: Solving for alpha.water
Phase-1 volume fraction = 0.48418476  Min(alpha.water) = -1.1585344e-17  Max(alpha.water) = 1
MULES: Solving for alpha.water
Phase-1 volume fraction = 0.48418369  Min(alpha.water) = -5.9405983e-18  Max(alpha.water) = 1
smoothSolver:  Solving for T, Initial residual = 0.00029000922, Final residual = 8.3377248e-10, No Iterations 3
GAMG:  Solving for p_rgh, Initial residual = 0.10643057, Final residual = 0.00016519215, No Iterations 2
GAMGPCG:  Solving for p_rgh, Initial residual = 0.00099062838, Final residual = 2.1543047e-08, No Iterations 5
ExecutionTime = 5.36 s


Courant Number mean: 0.17803345 max: 0.47938428
Interface Courant Number mean: 0.0067257281 max: 0.47889833
deltaT = 0.00048395445
Time = 0.02274068323

PIMPLE: iteration 1
MULES: Solving for alpha.water
Phase-1 volume fraction = 0.48419505  Min(alpha.water) = -6.7662641e-18  Max(alpha.water) = 1
MULES: Solving for alpha.water
Phase-1 volume fraction = 0.48419592  Min(alpha.water) = -6.0246448e-18  Max(alpha.water) = 1
smoothSolver:  Solving for T, Initial residual = 0.00033245534, Final residual = 8.463894e-10, No Iterations 3
GAMG:  Solving for p_rgh, Initial residual = 0.13021497, Final residual = 0.00023664382, No Iterations 2
GAMGPCG:  Solving for p_rgh, Initial residual = 0.0010018465, Final residual = 1.1956093e-08, No Iterations 5
ExecutionTime = 5.42 s


Courant Number mean: 0.18776207 max: 0.50538882
Interface Courant Number mean: 0.007671886 max: 0.50538882
deltaT = 0.00048395445
Time = 0.02322463768

PIMPLE: iteration 1
MULES: Solving for alpha.water
Phase-1 volume fraction = 0.48420515  Min(alpha.water) = -6.7461523e-18  Max(alpha.water) = 1
MULES: Solving for alpha.water
Phase-1 volume fraction = 0.48420465  Min(alpha.water) = -3.7006221e-18  Max(alpha.water) = 1
smoothSolver:  Solving for T, Initial residual = 0.00029401773, Final residual = 8.444282e-10, No Iterations 3
GAMG:  Solving for p_rgh, Initial residual = 0.11304833, Final residual = 0.00023290133, No Iterations 2
GAMGPCG:  Solving for p_rgh, Initial residual = 0.00093068775, Final residual = 1.6677135e-08, No Iterations 5
ExecutionTime = 5.5 s


Courant Number mean: 0.18630427 max: 0.49430557
Interface Courant Number mean: 0.007024185 max: 0.49430557
deltaT = 0.00048395445
Time = 0.02370859213

PIMPLE: iteration 1
MULES: Solving for alpha.water
Phase-1 volume fraction = 0.48421506  Min(alpha.water) = -3.4007584e-18  Max(alpha.water) = 1
MULES: Solving for alpha.water
Phase-1 volume fraction = 0.4842142  Min(alpha.water) = -3.8408884e-18  Max(alpha.water) = 1
smoothSolver:  Solving for T, Initial residual = 0.00031614723, Final residual = 7.2666736e-10, No Iterations 3
GAMG:  Solving for p_rgh, Initial residual = 0.11325149, Final residual = 0.00025353881, No Iterations 2
GAMGPCG:  Solving for p_rgh, Initial residual = 0.00096236437, Final residual = 1.5796134e-08, No Iterations 5
ExecutionTime = 5.56 s


Courant Number mean: 0.18459395 max: 0.48968428
Interface Courant Number mean: 0.0074424529 max: 0.48968428
deltaT = 0.00048395445
Time = 0.02419254658

PIMPLE: iteration 1
MULES: Solving for alpha.water
Phase-1 volume fraction = 0.48422304  Min(alpha.water) = -6.7206325e-18  Max(alpha.water) = 1
MULES: Solving for alpha.water
Phase-1 volume fraction = 0.48422243  Min(alpha.water) = -5.9997885e-18  Max(alpha.water) = 1
smoothSolver:  Solving for T, Initial residual = 0.00033999296, Final residual = 7.3465246e-10, No Iterations 3
GAMG:  Solving for p_rgh, Initial residual = 0.089515038, Final residual = 0.00017558154, No Iterations 2
GAMGPCG:  Solving for p_rgh, Initial residual = 0.00082071904, Final residual = 1.4476376e-08, No Iterations 5
ExecutionTime = 5.63 s


Courant Number mean: 0.18294207 max: 0.4793046
Interface Courant Number mean: 0.0076149358 max: 0.4793046
deltaT = 0.00048395445
Time = 0.02467650104

PIMPLE: iteration 1
MULES: Solving for alpha.water
Phase-1 volume fraction = 0.48423213  Min(alpha.water) = -1.3468352e-17  Max(alpha.water) = 1
MULES: Solving for alpha.water
Phase-1 volume fraction = 0.48423176  Min(alpha.water) = -6.2218931e-18  Max(alpha.water) = 1
smoothSolver:  Solving for T, Initial residual = 0.00028285755, Final residual = 5.950837e-10, No Iterations 3
GAMG:  Solving for p_rgh, Initial residual = 0.11348896, Final residual = 0.00017313744, No Iterations 2
GAMGPCG:  Solving for p_rgh, Initial residual = 0.00074305212, Final residual = 1.3986041e-08, No Iterations 5
ExecutionTime = 5.7 s


Courant Number mean: 0.18130492 max: 0.47383958
Interface Courant Number mean: 0.0070960958 max: 0.47383958
deltaT = 0.0005323499
Time = 0.02520885093

PIMPLE: iteration 1
MULES: Solving for alpha.water
Phase-1 volume fraction = 0.48424253  Min(alpha.water) = -5.9998396e-18  Max(alpha.water) = 1
MULES: Solving for alpha.water
Phase-1 volume fraction = 0.48424148  Min(alpha.water) = -3.3539902e-18  Max(alpha.water) = 1
smoothSolver:  Solving for T, Initial residual = 0.00036409712, Final residual = 1.058971e-09, No Iterations 3
GAMG:  Solving for p_rgh, Initial residual = 0.10627462, Final residual = 0.00019324353, No Iterations 2
GAMGPCG:  Solving for p_rgh, Initial residual = 0.00084368697, Final residual = 2.2343409e-08, No Iterations 5
ExecutionTime = 5.78 s


Courant Number mean: 0.19719183 max: 0.50946098
Interface Courant Number mean: 0.0071638081 max: 0.50818088
deltaT = 0.0005323499
Time = 0.02574120083

PIMPLE: iteration 1
MULES: Solving for alpha.water
Phase-1 volume fraction = 0.48425269  Min(alpha.water) = -7.3730842e-18  Max(alpha.water) = 1
MULES: Solving for alpha.water
Phase-1 volume fraction = 0.48425262  Min(alpha.water) = -1.3560363e-17  Max(alpha.water) = 1
smoothSolver:  Solving for T, Initial residual = 0.00037834678, Final residual = 7.4706878e-10, No Iterations 3
GAMG:  Solving for p_rgh, Initial residual = 0.12443945, Final residual = 0.00023202384, No Iterations 2
GAMGPCG:  Solving for p_rgh, Initial residual = 0.00089203154, Final residual = 1.9594266e-08, No Iterations 5
ExecutionTime = 5.84 s


Courant Number mean: 0.19493978 max: 0.50211407
Interface Courant Number mean: 0.0080953914 max: 0.50211407
deltaT = 0.0005323499
Time = 0.02627355072

PIMPLE: iteration 1
MULES: Solving for alpha.water
Phase-1 volume fraction = 0.48426445  Min(alpha.water) = -1.2136513e-17  Max(alpha.water) = 1
MULES: Solving for alpha.water
Phase-1 volume fraction = 0.48426405  Min(alpha.water) = -6.6943114e-18  Max(alpha.water) = 1
smoothSolver:  Solving for T, Initial residual = 0.00031598694, Final residual = 7.6857153e-10, No Iterations 3
GAMG:  Solving for p_rgh, Initial residual = 0.10437997, Final residual = 0.00024370015, No Iterations 2
GAMGPCG:  Solving for p_rgh, Initial residual = 0.00078981988, Final residual = 1.5375434e-08, No Iterations 5
ExecutionTime = 5.92 s


Courant Number mean: 0.19270593 max: 0.4902095
Interface Courant Number mean: 0.0075269332 max: 0.4902095
deltaT = 0.0005323499
Time = 0.02680590062

PIMPLE: iteration 1
MULES: Solving for alpha.water
Phase-1 volume fraction = 0.48427494  Min(alpha.water) = -3.7469861e-18  Max(alpha.water) = 1
MULES: Solving for alpha.water
Phase-1 volume fraction = 0.48427487  Min(alpha.water) = -3.5628216e-18  Max(alpha.water) = 1
smoothSolver:  Solving for T, Initial residual = 0.00037209973, Final residual = 6.2232287e-10, No Iterations 3
GAMG:  Solving for p_rgh, Initial residual = 0.11067563, Final residual = 0.00022914722, No Iterations 2
GAMGPCG:  Solving for p_rgh, Initial residual = 0.00077554097, Final residual = 1.6951413e-08, No Iterations 5
ExecutionTime = 5.99 s


Courant Number mean: 0.19009427 max: 0.48241679
Interface Courant Number mean: 0.0078248618 max: 0.48241679
deltaT = 0.0005323499
Time = 0.02733825052

PIMPLE: iteration 1
MULES: Solving for alpha.water
Phase-1 volume fraction = 0.48428575  Min(alpha.water) = -1.4691064e-17  Max(alpha.water) = 1
MULES: Solving for alpha.water
Phase-1 volume fraction = 0.48428575  Min(alpha.water) = -3.6130653e-18  Max(alpha.water) = 1
smoothSolver:  Solving for T, Initial residual = 0.00036250944, Final residual = 5.8613654e-10, No Iterations 3
GAMG:  Solving for p_rgh, Initial residual = 0.091814993, Final residual = 0.00015754959, No Iterations 2
GAMGPCG:  Solving for p_rgh, Initial residual = 0.00066446991, Final residual = 1.99308e-08, No Iterations 5
ExecutionTime = 6.05 s


Courant Number mean: 0.18759968 max: 0.47110757
Interface Courant Number mean: 0.0077354631 max: 0.47110757
deltaT = 0.0005323499
Time = 0.02787060041

PIMPLE: iteration 1
MULES: Solving for alpha.water
Phase-1 volume fraction = 0.48429622  Min(alpha.water) = -7.5202987e-18  Max(alpha.water) = 1
MULES: Solving for alpha.water
Phase-1 volume fraction = 0.4842956  Min(alpha.water) = -3.3528609e-18  Max(alpha.water) = 1
smoothSolver:  Solving for T, Initial residual = 0.00032878689, Final residual = 5.4789413e-10, No Iterations 3
GAMG:  Solving for p_rgh, Initial residual = 0.093681858, Final residual = 0.00016166663, No Iterations 2
GAMGPCG:  Solving for p_rgh, Initial residual = 0.00064484, Final residual = 1.7114085e-08, No Iterations 5
ExecutionTime = 6.13 s


Courant Number mean: 0.18487306 max: 0.46312066
Interface Courant Number mean: 0.0076466596 max: 0.46312066
deltaT = 0.0005323499
Time = 0.02840295031

PIMPLE: iteration 1
MULES: Solving for alpha.water
Phase-1 volume fraction = 0.48430519  Min(alpha.water) = -7.5206661e-18  Max(alpha.water) = 1
MULES: Solving for alpha.water
Phase-1 volume fraction = 0.48430449  Min(alpha.water) = -1.8160928e-18  Max(alpha.water) = 1
smoothSolver:  Solving for T, Initial residual = 0.00034833055, Final residual = 4.6106278e-10, No Iterations 3
GAMG:  Solving for p_rgh, Initial residual = 0.090647559, Final residual = 0.00016282228, No Iterations 2
GAMGPCG:  Solving for p_rgh, Initial residual = 0.00061042124, Final residual = 1.5656196e-08, No Iterations 5
ExecutionTime = 6.2 s


Courant Number mean: 0.18232569 max: 0.45083481
Interface Courant Number mean: 0.007075621 max: 0.44827461
deltaT = 0.0005323499
Time = 0.02893530021

PIMPLE: iteration 1
MULES: Solving for alpha.water
Phase-1 volume fraction = 0.48431474  Min(alpha.water) = -1.8678128e-18  Max(alpha.water) = 1
MULES: Solving for alpha.water
Phase-1 volume fraction = 0.48431476  Min(alpha.water) = -7.1173762e-18  Max(alpha.water) = 1
smoothSolver:  Solving for T, Initial residual = 0.00034573755, Final residual = 3.9447491e-10, No Iterations 3
GAMG:  Solving for p_rgh, Initial residual = 0.096332208, Final residual = 0.00020142599, No Iterations 2
GAMGPCG:  Solving for p_rgh, Initial residual = 0.00063048507, Final residual = 1.2628073e-08, No Iterations 5
ExecutionTime = 6.28 s


Courant Number mean: 0.17968197 max: 0.44334855
Interface Courant Number mean: 0.0072548029 max: 0.44334855
deltaT = 0.0005323499
Time = 0.0294676501

PIMPLE: iteration 1
MULES: Solving for alpha.water
Phase-1 volume fraction = 0.48432409  Min(alpha.water) = -5.3670845e-18  Max(alpha.water) = 1
MULES: Solving for alpha.water
Phase-1 volume fraction = 0.48432385  Min(alpha.water) = -7.3587913e-18  Max(alpha.water) = 1
smoothSolver:  Solving for T, Initial residual = 0.00033576723, Final residual = 2.9870078e-10, No Iterations 3
GAMG:  Solving for p_rgh, Initial residual = 0.083692576, Final residual = 0.00016648878, No Iterations 2
GAMGPCG:  Solving for p_rgh, Initial residual = 0.0005701168, Final residual = 1.4496639e-08, No Iterations 5
ExecutionTime = 6.39 s


Courant Number mean: 0.17697733 max: 0.43748985
Interface Courant Number mean: 0.0072649052 max: 0.43213564
deltaT = 0.0005323499
Time = 0.03

PIMPLE: iteration 1
MULES: Solving for alpha.water
Phase-1 volume fraction = 0.48433351  Min(alpha.water) = -7.4734957e-18  Max(alpha.water) = 1
MULES: Solving for alpha.water
Phase-1 volume fraction = 0.48433326  Min(alpha.water) = -1.8469594e-18  Max(alpha.water) = 1
smoothSolver:  Solving for T, Initial residual = 0.00033613775, Final residual = 2.8513852e-10, No Iterations 3
GAMG:  Solving for p_rgh, Initial residual = 0.096002208, Final residual = 0.00019968765, No Iterations 2
GAMGPCG:  Solving for p_rgh, Initial residual = 0.00055357612, Final residual = 9.4963354e-08, No Iterations 4
ExecutionTime = 6.48 s


Courant Number mean: 0.17388664 max: 0.42351155
Interface Courant Number mean: 0.0075118448 max: 0.42351155
deltaT = 0.00058823529
Time = 0.03058823529

PIMPLE: iteration 1
MULES: Solving for alpha.water
Phase-1 volume fraction = 0.48434554  Min(alpha.water) = -8.3281858e-18  Max(alpha.water) = 1
MULES: Solving for alpha.water
Phase-1 volume fraction = 0.48434635  Min(alpha.water) = -1.5043599e-17  Max(alpha.water) = 1
smoothSolver:  Solving for T, Initial residual = 0.00037345206, Final residual = 4.2619726e-10, No Iterations 3
GAMG:  Solving for p_rgh, Initial residual = 0.095516576, Final residual = 0.00019027253, No Iterations 2
GAMGPCG:  Solving for p_rgh, Initial residual = 0.00057526925, Final residual = 8.8911757e-08, No Iterations 4
ExecutionTime = 6.56 s


Courant Number mean: 0.18865147 max: 0.45856578
Interface Courant Number mean: 0.0074936157 max: 0.45856578
deltaT = 0.00062745098
Time = 0.03121568627

PIMPLE: iteration 1
MULES: Solving for alpha.water
Phase-1 volume fraction = 0.48435598  Min(alpha.water) = -8.7306973e-18  Max(alpha.water) = 1
MULES: Solving for alpha.water
Phase-1 volume fraction = 0.4843546  Min(alpha.water) = -8.2355475e-18  Max(alpha.water) = 1
smoothSolver:  Solving for T, Initial residual = 0.00046488126, Final residual = 5.754347e-10, No Iterations 3
GAMG:  Solving for p_rgh, Initial residual = 0.10985832, Final residual = 0.00094742415, No Iterations 1
GAMGPCG:  Solving for p_rgh, Initial residual = 0.0013928111, Final residual = 4.1191249e-08, No Iterations 5
ExecutionTime = 6.65 s


Courant Number mean: 0.19643734 max: 0.47167662
Interface Courant Number mean: 0.0086806169 max: 0.47167662
deltaT = 0.00067571644
Time = 0.03189140271

PIMPLE: iteration 1
MULES: Solving for alpha.water
Phase-1 volume fraction = 0.48437197  Min(alpha.water) = -4.8792634e-18  Max(alpha.water) = 1
MULES: Solving for alpha.water
Phase-1 volume fraction = 0.48437417  Min(alpha.water) = -2.3157994e-18  Max(alpha.water) = 1
smoothSolver:  Solving for T, Initial residual = 0.0004485084, Final residual = 7.7254592e-10, No Iterations 3
GAMG:  Solving for p_rgh, Initial residual = 0.12826051, Final residual = 0.00025676465, No Iterations 2
GAMGPCG:  Solving for p_rgh, Initial residual = 0.0007121454, Final residual = 1.874483e-08, No Iterations 5
ExecutionTime = 6.74 s


Courant Number mean: 0.20675512 max: 0.4958739
Interface Courant Number mean: 0.0082639124 max: 0.4958739
deltaT = 0.00067571644
Time = 0.03256711916

PIMPLE: iteration 1
MULES: Solving for alpha.water
Phase-1 volume fraction = 0.48438491  Min(alpha.water) = -4.7497677e-18  Max(alpha.water) = 1
MULES: Solving for alpha.water
Phase-1 volume fraction = 0.48438304  Min(alpha.water) = -8.5328418e-18  Max(alpha.water) = 1
smoothSolver:  Solving for T, Initial residual = 0.00046824691, Final residual = 5.799345e-10, No Iterations 3
GAMG:  Solving for p_rgh, Initial residual = 0.12088039, Final residual = 0.00024431046, No Iterations 2
GAMGPCG:  Solving for p_rgh, Initial residual = 0.00073345075, Final residual = 2.4194869e-08, No Iterations 5
ExecutionTime = 6.82 s


Courant Number mean: 0.20152648 max: 0.48190311
Interface Courant Number mean: 0.0077956049 max: 0.4763687
deltaT = 0.00067571644
Time = 0.0332428356

PIMPLE: iteration 1
MULES: Solving for alpha.water
Phase-1 volume fraction = 0.4844003  Min(alpha.water) = -8.5060463e-18  Max(alpha.water) = 1
MULES: Solving for alpha.water
Phase-1 volume fraction = 0.48440256  Min(alpha.water) = -8.6869468e-18  Max(alpha.water) = 1
smoothSolver:  Solving for T, Initial residual = 0.00049752506, Final residual = 4.4880913e-10, No Iterations 3
GAMG:  Solving for p_rgh, Initial residual = 0.12453703, Final residual = 0.00026059798, No Iterations 2
GAMGPCG:  Solving for p_rgh, Initial residual = 0.00063380478, Final residual = 1.0825377e-08, No Iterations 5
ExecutionTime = 6.91 s


Courant Number mean: 0.1967541 max: 0.47015367
Interface Courant Number mean: 0.0087238745 max: 0.46518905
deltaT = 0.00075079604
Time = 0.03399363164

PIMPLE: iteration 1
MULES: Solving for alpha.water
Phase-1 volume fraction = 0.4844148  Min(alpha.water) = -1.054159e-17  Max(alpha.water) = 1
MULES: Solving for alpha.water
Phase-1 volume fraction = 0.48441358  Min(alpha.water) = -2.334782e-18  Max(alpha.water) = 1
smoothSolver:  Solving for T, Initial residual = 0.00048592498, Final residual = 6.7126453e-10, No Iterations 3
GAMG:  Solving for p_rgh, Initial residual = 0.12297902, Final residual = 0.00020455017, No Iterations 2
GAMGPCG:  Solving for p_rgh, Initial residual = 0.00065872724, Final residual = 2.0713973e-08, No Iterations 5
ExecutionTime = 7 s


Courant Number mean: 0.21191974 max: 0.50233166
Interface Courant Number mean: 0.0083641173 max: 0.49516004
deltaT = 0.00075079604
Time = 0.03474442769

PIMPLE: iteration 1
MULES: Solving for alpha.water
Phase-1 volume fraction = 0.48443116  Min(alpha.water) = -2.3330224e-18  Max(alpha.water) = 1
MULES: Solving for alpha.water
Phase-1 volume fraction = 0.48443184  Min(alpha.water) = -1.4987862e-18  Max(alpha.water) = 1
smoothSolver:  Solving for T, Initial residual = 0.00059738124, Final residual = 4.9161501e-10, No Iterations 3
GAMG:  Solving for p_rgh, Initial residual = 0.14866841, Final residual = 0.00033967644, No Iterations 2
GAMGPCG:  Solving for p_rgh, Initial residual = 0.00080496146, Final residual = 2.1532306e-08, No Iterations 5
ExecutionTime = 7.09 s


Courant Number mean: 0.20544996 max: 0.48411107
Interface Courant Number mean: 0.0094316877 max: 0.47753222
deltaT = 0.00075079604
Time = 0.03549522373

PIMPLE: iteration 1
MULES: Solving for alpha.water
Phase-1 volume fraction = 0.48444361  Min(alpha.water) = -1.0525922e-17  Max(alpha.water) = 1
MULES: Solving for alpha.water
Phase-1 volume fraction = 0.48444278  Min(alpha.water) = -2.4380251e-18  Max(alpha.water) = 1
smoothSolver:  Solving for T, Initial residual = 0.00050874885, Final residual = 4.7208119e-10, No Iterations 3
GAMG:  Solving for p_rgh, Initial residual = 0.10887878, Final residual = 0.00021111088, No Iterations 2
GAMGPCG:  Solving for p_rgh, Initial residual = 0.00059610228, Final residual = 9.4028644e-08, No Iterations 4
ExecutionTime = 7.18 s


Courant Number mean: 0.19884857 max: 0.47189496
Interface Courant Number mean: 0.0084828417 max: 0.46545515
deltaT = 0.00075079604
Time = 0.03624601978

PIMPLE: iteration 1
MULES: Solving for alpha.water
Phase-1 volume fraction = 0.48445649  Min(alpha.water) = -2.1210606e-17  Max(alpha.water) = 1
MULES: Solving for alpha.water
Phase-1 volume fraction = 0.48445598  Min(alpha.water) = -5.1281955e-18  Max(alpha.water) = 1
smoothSolver:  Solving for T, Initial residual = 0.00047398963, Final residual = 3.7800742e-10, No Iterations 3
GAMG:  Solving for p_rgh, Initial residual = 0.1387373, Final residual = 0.00023771573, No Iterations 2
GAMGPCG:  Solving for p_rgh, Initial residual = 0.00056579352, Final residual = 1.9164734e-08, No Iterations 5
ExecutionTime = 7.27 s


Courant Number mean: 0.19197297 max: 0.45721668
Interface Courant Number mean: 0.0081255828 max: 0.44973755
deltaT = 0.00075079604
Time = 0.03699681582

PIMPLE: iteration 1
MULES: Solving for alpha.water
Phase-1 volume fraction = 0.48446691  Min(alpha.water) = -5.3340898e-18  Max(alpha.water) = 1
MULES: Solving for alpha.water
Phase-1 volume fraction = 0.48446689  Min(alpha.water) = -1.0096723e-17  Max(alpha.water) = 1
smoothSolver:  Solving for T, Initial residual = 0.00055984419, Final residual = 3.3573804e-10, No Iterations 3
GAMG:  Solving for p_rgh, Initial residual = 0.095868608, Final residual = 0.00023787485, No Iterations 2
GAMGPCG:  Solving for p_rgh, Initial residual = 0.00054825231, Final residual = 7.8811566e-08, No Iterations 4
ExecutionTime = 7.36 s


Courant Number mean: 0.18524507 max: 0.43779643
Interface Courant Number mean: 0.0077466169 max: 0.42965358
deltaT = 0.00075079604
Time = 0.03774761187

PIMPLE: iteration 1
MULES: Solving for alpha.water
Phase-1 volume fraction = 0.48447704  Min(alpha.water) = -1.0667074e-17  Max(alpha.water) = 1
MULES: Solving for alpha.water
Phase-1 volume fraction = 0.48447604  Min(alpha.water) = -9.8066661e-18  Max(alpha.water) = 1
smoothSolver:  Solving for T, Initial residual = 0.00044628325, Final residual = 2.149298e-10, No Iterations 3
GAMG:  Solving for p_rgh, Initial residual = 0.11708601, Final residual = 0.00018778416, No Iterations 2
GAMGPCG:  Solving for p_rgh, Initial residual = 0.00045767004, Final residual = 1.4901238e-08, No Iterations 5
ExecutionTime = 7.46 s


Courant Number mean: 0.17852799 max: 0.43074903
Interface Courant Number mean: 0.0076948222 max: 0.41690117
deltaT = 0.00075079604
Time = 0.03849840791

PIMPLE: iteration 1
MULES: Solving for alpha.water
Phase-1 volume fraction = 0.48448655  Min(alpha.water) = -7.623895e-18  Max(alpha.water) = 1
MULES: Solving for alpha.water
Phase-1 volume fraction = 0.4844861  Min(alpha.water) = -7.4447725e-18  Max(alpha.water) = 1
smoothSolver:  Solving for T, Initial residual = 0.00046257795, Final residual = 9.5071563e-09, No Iterations 2
GAMG:  Solving for p_rgh, Initial residual = 0.094400817, Final residual = 0.00014711169, No Iterations 2
GAMGPCG:  Solving for p_rgh, Initial residual = 0.0003796495, Final residual = 7.287124e-08, No Iterations 4
ExecutionTime = 7.55 s


Courant Number mean: 0.17186366 max: 0.40728582
Interface Courant Number mean: 0.0076140347 max: 0.39981361
deltaT = 0.00075079604
Time = 0.03924920396

PIMPLE: iteration 1
MULES: Solving for alpha.water
Phase-1 volume fraction = 0.48449239  Min(alpha.water) = -7.4268084e-18  Max(alpha.water) = 1
MULES: Solving for alpha.water
Phase-1 volume fraction = 0.48449117  Min(alpha.water) = -5.313671e-18  Max(alpha.water) = 1
smoothSolver:  Solving for T, Initial residual = 0.0004711865, Final residual = 8.1935595e-09, No Iterations 2
GAMG:  Solving for p_rgh, Initial residual = 0.085842823, Final residual = 0.00012628238, No Iterations 2
GAMGPCG:  Solving for p_rgh, Initial residual = 0.00034749794, Final residual = 6.421155e-08, No Iterations 4
ExecutionTime = 7.64 s


Courant Number mean: 0.16493471 max: 0.40234955
Interface Courant Number mean: 0.0076529259 max: 0.40099569
deltaT = 0.00075079604
Time = 0.04

PIMPLE: iteration 1
MULES: Solving for alpha.water
Phase-1 volume fraction = 0.48449896  Min(alpha.water) = -4.6237543e-18  Max(alpha.water) = 1
MULES: Solving for alpha.water
Phase-1 volume fraction = 0.48449815  Min(alpha.water) = -2.6668806e-18  Max(alpha.water) = 1
smoothSolver:  Solving for T, Initial residual = 0.0004280962, Final residual = 7.1809259e-09, No Iterations 2
GAMG:  Solving for p_rgh, Initial residual = 0.082397538, Final residual = 0.00018937064, No Iterations 2
GAMGPCG:  Solving for p_rgh, Initial residual = 0.00037363406, Final residual = 5.5009649e-08, No Iterations 4
ExecutionTime = 7.73 s


Courant Number mean: 0.1582006 max: 0.38392039
Interface Courant Number mean: 0.0074407334 max: 0.37372002
deltaT = 0.00083333333
Time = 0.04083333333

PIMPLE: iteration 1
MULES: Solving for alpha.water
Phase-1 volume fraction = 0.48450551  Min(alpha.water) = -2.2442926e-18  Max(alpha.water) = 1
MULES: Solving for alpha.water
Phase-1 volume fraction = 0.48450448  Min(alpha.water) = -2.8961343e-18  Max(alpha.water) = 1
smoothSolver:  Solving for T, Initial residual = 0.00046088465, Final residual = 1.8510834e-10, No Iterations 3
GAMG:  Solving for p_rgh, Initial residual = 0.091870274, Final residual = 0.00022743298, No Iterations 2
GAMGPCG:  Solving for p_rgh, Initial residual = 0.000415359, Final residual = 4.6759068e-08, No Iterations 4
ExecutionTime = 7.81 s


Courant Number mean: 0.16687548 max: 0.41221188
Interface Courant Number mean: 0.0080481835 max: 0.41221188
deltaT = 0.00091666667
Time = 0.04175

PIMPLE: iteration 1
MULES: Solving for alpha.water
Phase-1 volume fraction = 0.48451115  Min(alpha.water) = -6.5132378e-18  Max(alpha.water) = 1
MULES: Solving for alpha.water
Phase-1 volume fraction = 0.48450946  Min(alpha.water) = -3.1655088e-18  Max(alpha.water) = 1
smoothSolver:  Solving for T, Initial residual = 0.00052844929, Final residual = 3.3410274e-10, No Iterations 3
GAMG:  Solving for p_rgh, Initial residual = 0.094015716, Final residual = 0.00018789236, No Iterations 2
GAMGPCG:  Solving for p_rgh, Initial residual = 0.00041357165, Final residual = 6.932328e-08, No Iterations 4
ExecutionTime = 7.9 s


Courant Number mean: 0.1733486 max: 0.43503373
Interface Courant Number mean: 0.0079822213 max: 0.4283421
deltaT = 0.00103125
Time = 0.04278125

PIMPLE: iteration 1
MULES: Solving for alpha.water
Phase-1 volume fraction = 0.48451921  Min(alpha.water) = -3.5762176e-18  Max(alpha.water) = 1
MULES: Solving for alpha.water
Phase-1 volume fraction = 0.48451821  Min(alpha.water) = -3.6636904e-18  Max(alpha.water) = 1
smoothSolver:  Solving for T, Initial residual = 0.00060624888, Final residual = 5.4560131e-10, No Iterations 3
GAMG:  Solving for p_rgh, Initial residual = 0.12934686, Final residual = 0.0012695379, No Iterations 1
GAMGPCG:  Solving for p_rgh, Initial residual = 0.0015639786, Final residual = 4.1635539e-08, No Iterations 5
ExecutionTime = 7.99 s


Courant Number mean: 0.18280105 max: 0.47690055
Interface Courant Number mean: 0.0085816734 max: 0.47690055
deltaT = 0.00103125
Time = 0.0438125

PIMPLE: iteration 1
MULES: Solving for alpha.water
Phase-1 volume fraction = 0.48452523  Min(alpha.water) = -3.6287429e-18  Max(alpha.water) = 1
MULES: Solving for alpha.water
Phase-1 volume fraction = 0.48452341  Min(alpha.water) = -1.788447e-18  Max(alpha.water) = 1
smoothSolver:  Solving for T, Initial residual = 0.00054248552, Final residual = 4.5929755e-10, No Iterations 3
GAMG:  Solving for p_rgh, Initial residual = 0.10412547, Final residual = 0.00019506869, No Iterations 2
GAMGPCG:  Solving for p_rgh, Initial residual = 0.00041145881, Final residual = 4.7347985e-08, No Iterations 4
ExecutionTime = 8.1 s


Courant Number mean: 0.17062794 max: 0.47140424
Interface Courant Number mean: 0.0080559177 max: 0.47140424
deltaT = 0.00103125
Time = 0.04484375

PIMPLE: iteration 1
MULES: Solving for alpha.water
Phase-1 volume fraction = 0.48452861  Min(alpha.water) = -3.5787882e-18  Max(alpha.water) = 1
MULES: Solving for alpha.water
Phase-1 volume fraction = 0.48452743  Min(alpha.water) = -3.66263e-18  Max(alpha.water) = 1
smoothSolver:  Solving for T, Initial residual = 0.00049020309, Final residual = 3.3209101e-10, No Iterations 3
GAMG:  Solving for p_rgh, Initial residual = 0.094823288, Final residual = 0.0002078633, No Iterations 2
GAMGPCG:  Solving for p_rgh, Initial residual = 0.00038061314, Final residual = 4.0195451e-08, No Iterations 4
ExecutionTime = 8.23 s


Courant Number mean: 0.15856501 max: 0.46801392
Interface Courant Number mean: 0.0081521841 max: 0.46801392
deltaT = 0.00103125
Time = 0.045875

PIMPLE: iteration 1
MULES: Solving for alpha.water
Phase-1 volume fraction = 0.48453105  Min(alpha.water) = -1.6737039e-18  Max(alpha.water) = 1
MULES: Solving for alpha.water
Phase-1 volume fraction = 0.48452989  Min(alpha.water) = -3.5778672e-18  Max(alpha.water) = 1
smoothSolver:  Solving for T, Initial residual = 0.00042219245, Final residual = 2.923902e-10, No Iterations 3
GAMG:  Solving for p_rgh, Initial residual = 0.082745176, Final residual = 0.00014636348, No Iterations 2
GAMGPCG:  Solving for p_rgh, Initial residual = 0.00031287878, Final residual = 2.8401082e-08, No Iterations 4
ExecutionTime = 8.32 s


Courant Number mean: 0.14695643 max: 0.46267335
Interface Courant Number mean: 0.007590666 max: 0.46267335
deltaT = 0.00103125
Time = 0.04690625

PIMPLE: iteration 1
MULES: Solving for alpha.water
Phase-1 volume fraction = 0.48453269  Min(alpha.water) = -1.7993313e-18  Max(alpha.water) = 1
MULES: Solving for alpha.water
Phase-1 volume fraction = 0.48453197  Min(alpha.water) = -3.593386e-18  Max(alpha.water) = 1
smoothSolver:  Solving for T, Initial residual = 0.00040284951, Final residual = 2.5960882e-10, No Iterations 3
GAMG:  Solving for p_rgh, Initial residual = 0.070117498, Final residual = 0.00013045689, No Iterations 2
GAMGPCG:  Solving for p_rgh, Initial residual = 0.00029040897, Final residual = 2.3781875e-08, No Iterations 4
ExecutionTime = 8.39 s


Courant Number mean: 0.13645173 max: 0.45731607
Interface Courant Number mean: 0.0075237313 max: 0.45731607
deltaT = 0.00103125
Time = 0.0479375

PIMPLE: iteration 1
MULES: Solving for alpha.water
Phase-1 volume fraction = 0.48453366  Min(alpha.water) = -3.5933861e-18  Max(alpha.water) = 1
MULES: Solving for alpha.water
Phase-1 volume fraction = 0.48453311  Min(alpha.water) = -1.2541406e-18  Max(alpha.water) = 1
smoothSolver:  Solving for T, Initial residual = 0.00033256969, Final residual = 2.4243241e-10, No Iterations 3
GAMG:  Solving for p_rgh, Initial residual = 0.063842634, Final residual = 0.00011915273, No Iterations 2
GAMGPCG:  Solving for p_rgh, Initial residual = 0.00027375005, Final residual = 2.4405178e-08, No Iterations 4
ExecutionTime = 8.47 s


Courant Number mean: 0.12772641 max: 0.45424136
Interface Courant Number mean: 0.007116416 max: 0.45424136
deltaT = 0.00103125
Time = 0.04896875

PIMPLE: iteration 1
MULES: Solving for alpha.water
Phase-1 volume fraction = 0.48453478  Min(alpha.water) = -2.9419224e-18  Max(alpha.water) = 1
MULES: Solving for alpha.water
Phase-1 volume fraction = 0.48453457  Min(alpha.water) = -3.6052574e-18  Max(alpha.water) = 1
smoothSolver:  Solving for T, Initial residual = 0.00028861802, Final residual = 2.312205e-10, No Iterations 3
GAMG:  Solving for p_rgh, Initial residual = 0.053303712, Final residual = 0.00050327118, No Iterations 1
GAMGPCG:  Solving for p_rgh, Initial residual = 0.00064750867, Final residual = 2.0033595e-08, No Iterations 5
ExecutionTime = 8.55 s


Courant Number mean: 0.12068378 max: 0.45382192
Interface Courant Number mean: 0.0068721322 max: 0.45382192
deltaT = 0.00103125
Time = 0.05

PIMPLE: iteration 1
MULES: Solving for alpha.water
Phase-1 volume fraction = 0.4845358  Min(alpha.water) = -2.9938102e-18  Max(alpha.water) = 1
MULES: Solving for alpha.water
Phase-1 volume fraction = 0.48453554  Min(alpha.water) = -1.7318398e-18  Max(alpha.water) = 1
[...]
MULES: Solving for alpha.water
Phase-1 volume fraction = 0.48358934  Min(alpha.water) = -2.0644474e-18  Max(alpha.water) = 1
smoothSolver:  Solving for T, Initial residual = 1.0701189e-05, Final residual = 3.457276e-09, No Iterations 1
GAMG:  Solving for p_rgh, Initial residual = 0.0046384235, Final residual = 5.1280894e-06, No Iterations 2
GAMGPCG:  Solving for p_rgh, Initial residual = 7.6645909e-05, Final residual = 1.9268458e-08, No Iterations 3
ExecutionTime = 100.63 s


Courant Number mean: 0.031172551 max: 0.48908187
Interface Courant Number mean: 0.0050363862 max: 0.2293517
deltaT = 0.00016118662
Time = 0.4946808416

PIMPLE: iteration 1
MULES: Solving for alpha.water
Phase-1 volume fraction = 0.48358924  Min(alpha.water) = -5.5013631e-19  Max(alpha.water) = 1
MULES: Solving for alpha.water
Phase-1 volume fraction = 0.48358902  Min(alpha.water) = -1.0000674e-18  Max(alpha.water) = 1
smoothSolver:  Solving for T, Initial residual = 1.114592e-05, Final residual = 3.4944813e-09, No Iterations 1
GAMG:  Solving for p_rgh, Initial residual = 0.0050109546, Final residual = 6.3061739e-06, No Iterations 2
GAMGPCG:  Solving for p_rgh, Initial residual = 0.00010991485, Final residual = 2.7756964e-08, No Iterations 3
ExecutionTime = 100.71 s


Courant Number mean: 0.032035013 max: 0.47717403
Interface Courant Number mean: 0.0051636794 max: 0.22366828
deltaT = 0.00017158575
Time = 0.4948524274

PIMPLE: iteration 1
MULES: Solving for alpha.water
Phase-1 volume fraction = 0.48358885  Min(alpha.water) = -1.7253571e-18  Max(alpha.water) = 1
MULES: Solving for alpha.water
Phase-1 volume fraction = 0.48358851  Min(alpha.water) = -3.4342815e-18  Max(alpha.water) = 1
smoothSolver:  Solving for T, Initial residual = 1.2045331e-05, Final residual = 3.9866506e-09, No Iterations 1
GAMG:  Solving for p_rgh, Initial residual = 0.0055714044, Final residual = 8.7979523e-06, No Iterations 2
GAMGPCG:  Solving for p_rgh, Initial residual = 0.00014471203, Final residual = 2.5740281e-08, No Iterations 3
ExecutionTime = 100.79 s


Courant Number mean: 0.034009729 max: 0.48360383
Interface Courant Number mean: 0.0055046989 max: 0.22552321
deltaT = 0.0001775025
Time = 0.4950299299

PIMPLE: iteration 1
MULES: Solving for alpha.water
Phase-1 volume fraction = 0.48358826  Min(alpha.water) = -2.275987e-18  Max(alpha.water) = 1
MULES: Solving for alpha.water
Phase-1 volume fraction = 0.48358775  Min(alpha.water) = -7.2776432e-19  Max(alpha.water) = 1
smoothSolver:  Solving for T, Initial residual = 1.2539285e-05, Final residual = 4.101098e-09, No Iterations 1
GAMG:  Solving for p_rgh, Initial residual = 0.0056919148, Final residual = 9.8357726e-06, No Iterations 2
GAMGPCG:  Solving for p_rgh, Initial residual = 0.00012051287, Final residual = 1.7817781e-08, No Iterations 3
ExecutionTime = 100.87 s


Courant Number mean: 0.035105553 max: 0.47864593
Interface Courant Number mean: 0.0057232716 max: 0.23406815
deltaT = 0.00018407667
Time = 0.4952140066

PIMPLE: iteration 1
MULES: Solving for alpha.water
Phase-1 volume fraction = 0.48358745  Min(alpha.water) = -1.5674684e-18  Max(alpha.water) = 1
MULES: Solving for alpha.water
Phase-1 volume fraction = 0.48358688  Min(alpha.water) = -4.7968878e-19  Max(alpha.water) = 1
smoothSolver:  Solving for T, Initial residual = 1.2794996e-05, Final residual = 4.7195574e-09, No Iterations 1
GAMG:  Solving for p_rgh, Initial residual = 0.0061454676, Final residual = 1.2047525e-05, No Iterations 2
GAMGPCG:  Solving for p_rgh, Initial residual = 0.00011989064, Final residual = 2.0234521e-08, No Iterations 3
ExecutionTime = 100.95 s


Courant Number mean: 0.036312097 max: 0.42536516
Interface Courant Number mean: 0.0059123642 max: 0.31233986
deltaT = 0.00020808667
Time = 0.4954220932

PIMPLE: iteration 1
MULES: Solving for alpha.water
Phase-1 volume fraction = 0.48358648  Min(alpha.water) = -1.254327e-18  Max(alpha.water) = 1
MULES: Solving for alpha.water
Phase-1 volume fraction = 0.48358571  Min(alpha.water) = -1.3197902e-18  Max(alpha.water) = 1
smoothSolver:  Solving for T, Initial residual = 1.4409196e-05, Final residual = 7.7477669e-09, No Iterations 1
GAMG:  Solving for p_rgh, Initial residual = 0.0073080446, Final residual = 1.684402e-05, No Iterations 2
GAMGPCG:  Solving for p_rgh, Initial residual = 0.00012106677, Final residual = 2.3223033e-08, No Iterations 3
ExecutionTime = 101.03 s


Courant Number mean: 0.04094064 max: 0.48412478
Interface Courant Number mean: 0.0066697622 max: 0.32260431
deltaT = 0.00021799556
Time = 0.4956400888

PIMPLE: iteration 1
MULES: Solving for alpha.water
Phase-1 volume fraction = 0.48358531  Min(alpha.water) = -6.1163813e-19  Max(alpha.water) = 1
MULES: Solving for alpha.water
Phase-1 volume fraction = 0.4835845  Min(alpha.water) = -9.4128999e-19  Max(alpha.water) = 1
smoothSolver:  Solving for T, Initial residual = 1.4901544e-05, Final residual = 8.2758846e-09, No Iterations 1
GAMG:  Solving for p_rgh, Initial residual = 0.0078493589, Final residual = 1.810842e-05, No Iterations 2
GAMGPCG:  Solving for p_rgh, Initial residual = 0.00011448965, Final residual = 2.2170064e-08, No Iterations 3
ExecutionTime = 101.09 s


Courant Number mean: 0.042804465 max: 0.49746176
Interface Courant Number mean: 0.0070540364 max: 0.33141568
deltaT = 0.00021799556
Time = 0.4958580844

PIMPLE: iteration 1
MULES: Solving for alpha.water
Phase-1 volume fraction = 0.48358413  Min(alpha.water) = -6.3835299e-19  Max(alpha.water) = 1
MULES: Solving for alpha.water
Phase-1 volume fraction = 0.48358339  Min(alpha.water) = -1.0301778e-18  Max(alpha.water) = 1
smoothSolver:  Solving for T, Initial residual = 1.4781622e-05, Final residual = 7.6073795e-09, No Iterations 1
GAMG:  Solving for p_rgh, Initial residual = 0.0078652122, Final residual = 1.8511897e-05, No Iterations 2
GAMGPCG:  Solving for p_rgh, Initial residual = 0.00010791027, Final residual = 2.0063478e-08, No Iterations 3
ExecutionTime = 101.16 s


Courant Number mean: 0.042751959 max: 0.48276421
Interface Courant Number mean: 0.0071059249 max: 0.35961864
deltaT = 0.00023010642
Time = 0.4960881908

PIMPLE: iteration 1
MULES: Solving for alpha.water
Phase-1 volume fraction = 0.48358303  Min(alpha.water) = -6.8186439e-19  Max(alpha.water) = 1
MULES: Solving for alpha.water
Phase-1 volume fraction = 0.48358231  Min(alpha.water) = -1.0653332e-18  Max(alpha.water) = 1
smoothSolver:  Solving for T, Initial residual = 1.5603885e-05, Final residual = 8.4075824e-09, No Iterations 1
GAMG:  Solving for p_rgh, Initial residual = 0.0085882004, Final residual = 2.3339183e-05, No Iterations 2
GAMGPCG:  Solving for p_rgh, Initial residual = 0.00010989287, Final residual = 2.2454135e-08, No Iterations 3
ExecutionTime = 101.24 s


Courant Number mean: 0.045103532 max: 0.49866787
Interface Courant Number mean: 0.0074219693 max: 0.35972817
deltaT = 0.00023010642
Time = 0.4963182972

PIMPLE: iteration 1
MULES: Solving for alpha.water
Phase-1 volume fraction = 0.48358199  Min(alpha.water) = -2.2082932e-18  Max(alpha.water) = 1
MULES: Solving for alpha.water
Phase-1 volume fraction = 0.48358139  Min(alpha.water) = -1.0271621e-18  Max(alpha.water) = 1
smoothSolver:  Solving for T, Initial residual = 1.553591e-05, Final residual = 8.1811888e-09, No Iterations 1
GAMG:  Solving for p_rgh, Initial residual = 0.0086214674, Final residual = 2.3208688e-05, No Iterations 2
GAMGPCG:  Solving for p_rgh, Initial residual = 0.00010557794, Final residual = 2.2008697e-08, No Iterations 3
ExecutionTime = 101.33 s


Courant Number mean: 0.045109378 max: 0.49166823
Interface Courant Number mean: 0.0074095001 max: 0.34325765
deltaT = 0.00023010642
Time = 0.4965484036

PIMPLE: iteration 1
MULES: Solving for alpha.water
Phase-1 volume fraction = 0.48358112  Min(alpha.water) = -8.1295554e-19  Max(alpha.water) = 1
MULES: Solving for alpha.water
Phase-1 volume fraction = 0.48358065  Min(alpha.water) = -9.3813669e-18  Max(alpha.water) = 1
smoothSolver:  Solving for T, Initial residual = 1.5708704e-05, Final residual = 8.4374919e-09, No Iterations 1
GAMG:  Solving for p_rgh, Initial residual = 0.0087145002, Final residual = 2.2328489e-05, No Iterations 2
GAMGPCG:  Solving for p_rgh, Initial residual = 0.00011479249, Final residual = 2.1564942e-08, No Iterations 3
ExecutionTime = 101.41 s


Courant Number mean: 0.045118324 max: 0.48782083
Interface Courant Number mean: 0.0073843177 max: 0.32742161
deltaT = 0.00023010642
Time = 0.4967785101

PIMPLE: iteration 1
MULES: Solving for alpha.water
Phase-1 volume fraction = 0.48358042  Min(alpha.water) = -1.1321788e-18  Max(alpha.water) = 1
MULES: Solving for alpha.water
Phase-1 volume fraction = 0.48358005  Min(alpha.water) = -7.2617525e-19  Max(alpha.water) = 1
smoothSolver:  Solving for T, Initial residual = 1.6072911e-05, Final residual = 9.2697606e-09, No Iterations 1
GAMG:  Solving for p_rgh, Initial residual = 0.0086921791, Final residual = 2.1717192e-05, No Iterations 2
GAMGPCG:  Solving for p_rgh, Initial residual = 0.000107096, Final residual = 2.2545651e-08, No Iterations 3
ExecutionTime = 101.48 s


Courant Number mean: 0.045133068 max: 0.49018558
Interface Courant Number mean: 0.0073767204 max: 0.39119793
deltaT = 0.00023010642
Time = 0.4970086165

PIMPLE: iteration 1
MULES: Solving for alpha.water
Phase-1 volume fraction = 0.48357987  Min(alpha.water) = -3.053783e-18  Max(alpha.water) = 1
MULES: Solving for alpha.water
Phase-1 volume fraction = 0.48357963  Min(alpha.water) = -5.5862268e-19  Max(alpha.water) = 1
smoothSolver:  Solving for T, Initial residual = 1.6324603e-05, Final residual = 9.002087e-09, No Iterations 1
GAMG:  Solving for p_rgh, Initial residual = 0.0086557218, Final residual = 2.2343615e-05, No Iterations 2
GAMGPCG:  Solving for p_rgh, Initial residual = 0.00011354379, Final residual = 2.038432e-08, No Iterations 3
ExecutionTime = 101.58 s


Courant Number mean: 0.045136579 max: 0.48982027
Interface Courant Number mean: 0.0073703466 max: 0.39527172
deltaT = 0.00023010642
Time = 0.4972387229

PIMPLE: iteration 1
MULES: Solving for alpha.water
Phase-1 volume fraction = 0.48357951  Min(alpha.water) = -1.470086e-18  Max(alpha.water) = 1
MULES: Solving for alpha.water
Phase-1 volume fraction = 0.4835794  Min(alpha.water) = -1.4364615e-18  Max(alpha.water) = 1
smoothSolver:  Solving for T, Initial residual = 1.6510864e-05, Final residual = 9.020472e-09, No Iterations 1
GAMG:  Solving for p_rgh, Initial residual = 0.0086174635, Final residual = 2.14406e-05, No Iterations 2
GAMGPCG:  Solving for p_rgh, Initial residual = 0.00010453439, Final residual = 1.5669585e-08, No Iterations 3
ExecutionTime = 101.65 s


Courant Number mean: 0.04514191 max: 0.48906562
Interface Courant Number mean: 0.0073835547 max: 0.38530167
deltaT = 0.00023010642
Time = 0.4974688293

PIMPLE: iteration 1
MULES: Solving for alpha.water
Phase-1 volume fraction = 0.48357926  Min(alpha.water) = -9.823322e-19  Max(alpha.water) = 1
MULES: Solving for alpha.water
Phase-1 volume fraction = 0.4835792  Min(alpha.water) = -9.952078e-19  Max(alpha.water) = 1
smoothSolver:  Solving for T, Initial residual = 1.6506694e-05, Final residual = 8.9702545e-09, No Iterations 1
GAMG:  Solving for p_rgh, Initial residual = 0.0088045957, Final residual = 2.0666375e-05, No Iterations 2
GAMGPCG:  Solving for p_rgh, Initial residual = 0.0001053618, Final residual = 1.4702259e-08, No Iterations 3
ExecutionTime = 101.73 s


Courant Number mean: 0.045137148 max: 0.48751369
Interface Courant Number mean: 0.0073834391 max: 0.36913079
deltaT = 0.00023010642
Time = 0.4976989358

PIMPLE: iteration 1
MULES: Solving for alpha.water
Phase-1 volume fraction = 0.48357925  Min(alpha.water) = -1.5023041e-18  Max(alpha.water) = 1
MULES: Solving for alpha.water
Phase-1 volume fraction = 0.4835792  Min(alpha.water) = -1.117861e-18  Max(alpha.water) = 1
smoothSolver:  Solving for T, Initial residual = 1.6507508e-05, Final residual = 8.8786431e-09, No Iterations 1
GAMG:  Solving for p_rgh, Initial residual = 0.0089209031, Final residual = 1.8789432e-05, No Iterations 2
GAMGPCG:  Solving for p_rgh, Initial residual = 9.3941334e-05, Final residual = 1.3163163e-08, No Iterations 3
ExecutionTime = 101.78 s


Courant Number mean: 0.045128202 max: 0.48677883
Interface Courant Number mean: 0.0074028202 max: 0.35352158
deltaT = 0.00023010642
Time = 0.4979290422

PIMPLE: iteration 1
MULES: Solving for alpha.water
Phase-1 volume fraction = 0.48357902  Min(alpha.water) = -1.8637179e-18  Max(alpha.water) = 1
MULES: Solving for alpha.water
Phase-1 volume fraction = 0.48357897  Min(alpha.water) = -1.1267772e-18  Max(alpha.water) = 1
smoothSolver:  Solving for T, Initial residual = 1.6409041e-05, Final residual = 9.092985e-09, No Iterations 1
GAMG:  Solving for p_rgh, Initial residual = 0.0090494055, Final residual = 1.635537e-05, No Iterations 2
GAMGPCG:  Solving for p_rgh, Initial residual = 8.9266656e-05, Final residual = 1.308597e-08, No Iterations 3
ExecutionTime = 101.83 s


Courant Number mean: 0.045114336 max: 0.48633476
Interface Courant Number mean: 0.0073904079 max: 0.33713583
deltaT = 0.00023010642
Time = 0.4981591486

PIMPLE: iteration 1
MULES: Solving for alpha.water
Phase-1 volume fraction = 0.4835788  Min(alpha.water) = -1.0736031e-18  Max(alpha.water) = 1
MULES: Solving for alpha.water
Phase-1 volume fraction = 0.48357876  Min(alpha.water) = -6.5110953e-19  Max(alpha.water) = 1
smoothSolver:  Solving for T, Initial residual = 1.6428806e-05, Final residual = 9.2557195e-09, No Iterations 1
GAMG:  Solving for p_rgh, Initial residual = 0.0092242812, Final residual = 1.5266019e-05, No Iterations 2
GAMGPCG:  Solving for p_rgh, Initial residual = 9.0955488e-05, Final residual = 1.4361236e-08, No Iterations 3
ExecutionTime = 101.89 s


Courant Number mean: 0.045093717 max: 0.48502394
Interface Courant Number mean: 0.0074178367 max: 0.36676703
deltaT = 0.00023010642
Time = 0.498389255

PIMPLE: iteration 1
MULES: Solving for alpha.water
Phase-1 volume fraction = 0.48357861  Min(alpha.water) = -1.1989101e-18  Max(alpha.water) = 1
MULES: Solving for alpha.water
Phase-1 volume fraction = 0.48357858  Min(alpha.water) = -6.8264149e-19  Max(alpha.water) = 1
smoothSolver:  Solving for T, Initial residual = 1.6744244e-05, Final residual = 8.9355526e-09, No Iterations 1
GAMG:  Solving for p_rgh, Initial residual = 0.0091999934, Final residual = 1.5587886e-05, No Iterations 2
GAMGPCG:  Solving for p_rgh, Initial residual = 8.9566094e-05, Final residual = 1.2899406e-08, No Iterations 3
ExecutionTime = 101.94 s


Courant Number mean: 0.045067684 max: 0.48255181
Interface Courant Number mean: 0.0074573104 max: 0.361767
deltaT = 0.00023010642
Time = 0.4986193615

PIMPLE: iteration 1
MULES: Solving for alpha.water
Phase-1 volume fraction = 0.48357845  Min(alpha.water) = -4.8114686e-19  Max(alpha.water) = 1
MULES: Solving for alpha.water
Phase-1 volume fraction = 0.48357841  Min(alpha.water) = -7.961883e-19  Max(alpha.water) = 1
smoothSolver:  Solving for T, Initial residual = 1.6650272e-05, Final residual = 8.987286e-09, No Iterations 1
GAMG:  Solving for p_rgh, Initial residual = 0.0093238318, Final residual = 1.4566016e-05, No Iterations 2
GAMGPCG:  Solving for p_rgh, Initial residual = 8.5036795e-05, Final residual = 1.2222628e-08, No Iterations 3
ExecutionTime = 102.01 s


Courant Number mean: 0.045043832 max: 0.4790794
Interface Courant Number mean: 0.0074148267 max: 0.34293119
deltaT = 0.00023010642
Time = 0.4988494679

PIMPLE: iteration 1
MULES: Solving for alpha.water
Phase-1 volume fraction = 0.4835783  Min(alpha.water) = -6.8720361e-19  Max(alpha.water) = 1
MULES: Solving for alpha.water
Phase-1 volume fraction = 0.48357828  Min(alpha.water) = -6.4610575e-19  Max(alpha.water) = 1
smoothSolver:  Solving for T, Initial residual = 1.6456819e-05, Final residual = 9.1201484e-09, No Iterations 1
GAMG:  Solving for p_rgh, Initial residual = 0.0093448232, Final residual = 1.4024504e-05, No Iterations 2
GAMGPCG:  Solving for p_rgh, Initial residual = 8.4162509e-05, Final residual = 1.101588e-08, No Iterations 3
ExecutionTime = 102.07 s


Courant Number mean: 0.045020133 max: 0.4745286
Interface Courant Number mean: 0.0074314738 max: 0.32259462
deltaT = 0.00023010642
Time = 0.4990795743

PIMPLE: iteration 1
MULES: Solving for alpha.water
Phase-1 volume fraction = 0.4835782  Min(alpha.water) = -1.5891842e-18  Max(alpha.water) = 1
MULES: Solving for alpha.water
Phase-1 volume fraction = 0.48357817  Min(alpha.water) = -1.4982019e-18  Max(alpha.water) = 1
smoothSolver:  Solving for T, Initial residual = 1.6375669e-05, Final residual = 9.2136788e-09, No Iterations 1
GAMG:  Solving for p_rgh, Initial residual = 0.0094414733, Final residual = 1.4661343e-05, No Iterations 2
GAMGPCG:  Solving for p_rgh, Initial residual = 8.638915e-05, Final residual = 1.1883041e-08, No Iterations 3
ExecutionTime = 102.14 s


Courant Number mean: 0.044995034 max: 0.47179591
Interface Courant Number mean: 0.0074430997 max: 0.30261748
deltaT = 0.00023010642
Time = 0.4993096807

PIMPLE: iteration 1
MULES: Solving for alpha.water
Phase-1 volume fraction = 0.4835781  Min(alpha.water) = -1.2262149e-18  Max(alpha.water) = 1
MULES: Solving for alpha.water
Phase-1 volume fraction = 0.48357807  Min(alpha.water) = -8.5788873e-19  Max(alpha.water) = 1
smoothSolver:  Solving for T, Initial residual = 1.6303807e-05, Final residual = 9.0784487e-09, No Iterations 1
GAMG:  Solving for p_rgh, Initial residual = 0.0095291059, Final residual = 1.4785747e-05, No Iterations 2
GAMGPCG:  Solving for p_rgh, Initial residual = 9.2651748e-05, Final residual = 1.2136662e-08, No Iterations 3
ExecutionTime = 102.21 s


Courant Number mean: 0.044970088 max: 0.46892771
Interface Courant Number mean: 0.0074469747 max: 0.33832449
deltaT = 0.00023010642
Time = 0.4995397872

PIMPLE: iteration 1
MULES: Solving for alpha.water
Phase-1 volume fraction = 0.483578  Min(alpha.water) = -1.4320813e-18  Max(alpha.water) = 1
MULES: Solving for alpha.water
Phase-1 volume fraction = 0.48357795  Min(alpha.water) = -1.660439e-18  Max(alpha.water) = 1
smoothSolver:  Solving for T, Initial residual = 1.6234181e-05, Final residual = 8.7186516e-09, No Iterations 1
GAMG:  Solving for p_rgh, Initial residual = 0.0094301099, Final residual = 1.5471551e-05, No Iterations 2
GAMGPCG:  Solving for p_rgh, Initial residual = 8.0346956e-05, Final residual = 1.030401e-08, No Iterations 3
ExecutionTime = 102.28 s


Courant Number mean: 0.044953273 max: 0.46655613
Interface Courant Number mean: 0.0074471656 max: 0.32897418
deltaT = 0.00023010642
Time = 0.4997698936

PIMPLE: iteration 1
MULES: Solving for alpha.water
Phase-1 volume fraction = 0.48357788  Min(alpha.water) = -1.0674389e-18  Max(alpha.water) = 1
MULES: Solving for alpha.water
Phase-1 volume fraction = 0.48357783  Min(alpha.water) = -5.9126046e-19  Max(alpha.water) = 1
smoothSolver:  Solving for T, Initial residual = 1.6109739e-05, Final residual = 8.9700355e-09, No Iterations 1
GAMG:  Solving for p_rgh, Initial residual = 0.0094675527, Final residual = 1.648429e-05, No Iterations 2
GAMGPCG:  Solving for p_rgh, Initial residual = 7.8144769e-05, Final residual = 9.8101568e-09, No Iterations 3
ExecutionTime = 102.35 s


Courant Number mean: 0.044940972 max: 0.46307668
Interface Courant Number mean: 0.0074063488 max: 0.3133408
deltaT = 0.00023010642
Time = 0.5

PIMPLE: iteration 1
MULES: Solving for alpha.water
Phase-1 volume fraction = 0.48357777  Min(alpha.water) = -1.5178163e-18  Max(alpha.water) = 1
MULES: Solving for alpha.water
Phase-1 volume fraction = 0.48357772  Min(alpha.water) = -1.1259233e-18  Max(alpha.water) = 1
smoothSolver:  Solving for T, Initial residual = 1.6194622e-05, Final residual = 9.0295616e-09, No Iterations 1
GAMG:  Solving for p_rgh, Initial residual = 0.0096928458, Final residual = 1.9028394e-05, No Iterations 2
GAMGPCG:  Solving for p_rgh, Initial residual = 9.0152015e-05, Final residual = 9.9501416e-09, No Iterations 3
ExecutionTime = 102.42 s


End

